%nprocs=4
%mem=4GB
#p pbepbe aug-cc-pvtz output=wfx scf=(conver=6) int=(grid=ultrafine)

title

0 1
o -2.289837839092713 1.623243244132815 0.372594594798784
c -3.419837839711979 1.883243244275302 0.026594594609166
o -3.999837840029827 3.083243244932926 0.224594594717675
h -3.340837839668685 3.629243245232143 0.678594594966477
c -4.363837840229309 0.940243243758519 -0.692405405784861
h -4.576837840346039 1.352243243984301 -1.676405406324112
h -5.295837840740060 0.908243243740983 -0.132405405477970
n -3.816837839929545 -0.380756756965419 -0.806405405847334
h -3.059837839514692 -0.525756757044881 -1.468405406210124
c -3.732837839883513 -1.125756757373693 0.337594594779600
o -4.375837840235889 -0.882756757240521 1.349594595334199
c -2.693837839314115 -2.233756757980901 0.260594594737406
h -2.728837839333294 -2.745756758261487 -0.699405405788692
h -2.865837839408372 -2.936756758366154 1.068594595180206
n -1.383837838596208 -1.628756757649347 0.411594594820158
h -1.049837838413169 -1.353756757498639 1.327594595322141
c -0.790837838271228 -0.982756757295326 -0.613405405741567
o -1.192837838491536 -1.026756757319436 -1.779405406380559
c 0.464162162416537 -0.218756756876636 -0.232405405532769
n 0.412162162388037 0.170243243336540 1.172594595237200
h 1.322162162886736 0.513243243524512 1.459594595394482
h -0.247837837973653 0.934243243755230 1.280594595296383
h 0.516162162445031 0.625243243585890 -0.925405405912549
c 1.678162163081834 -1.124756757373145 -0.481405405669226
h 1.597162163037440 -1.994756757849924 0.171594594688633
h 1.634162163057718 -1.467756757561117 -1.516405406236429
c 2.963162163786035 -0.394756756973087 -0.220405405526196
c 3.646162164160336 -0.548756757057486 0.988594595136364
h 3.265162163951539 -1.245756757439455 1.725594595540254
c 4.809162164797685 0.174243243338735 1.249594595279394
h 5.328162165082109 0.039243243264752 2.189594595794535
c 5.305162165069504 1.063243243825924 0.299594594758780
h 6.209162165564914 1.622243244132267 0.497594594867284
c 4.633162164701229 1.224243243914154 -0.912405405905423
h 5.017162164911668 1.907243244288455 -1.657405406313696
c 3.471162164064432 0.501243243517938 -1.167405406045168
h 2.954162163781104 0.624243243585343 -2.111405406562499

366.wfx

