%nprocs=4
%mem=4GB
#p pbepbe aug-cc-pvtz output=wfx scf=(conver=6) int=(grid=ultrafine)

title

0 1
o 1.171756757398903 0.200027027136643 -1.164216216854231
c 2.183756757953502 0.244027027160758 -0.503216216491988
o 3.304756758567831 -0.435972973211895 -0.811216216660776
h 3.088756758449458 -0.953972973495770 -1.601216217093713
c 2.376756758059269 1.056027027605748 0.761783784201261
h 3.261756758544267 1.676027027945522 0.628783784128372
h 2.563756758161746 0.370027027229810 1.584783784652281
n 1.235756757433976 1.879027028056768 1.043783784355801
h 0.427756756991177 1.451027027822219 1.478783784594188
c 0.979756757293683 2.911027028622330 0.184783783885049
o 1.815756757751825 3.372027028874963 -0.578216216533088
c -0.466243243498754 3.384027028881542 0.210783783899301
h -0.537243243537664 4.307027029387362 -0.355216216410879
h -0.812243243688368 3.539027028966483 1.230783784458279
n -1.302243243956901 2.368027028324754 -0.400216216435542
h -1.297243243954159 2.237027028252960 -1.403216216985203
c -1.731243244191998 1.304027027741657 0.306783783951911
o -1.605243244122952 1.207027027688499 1.530783784622687
c -2.427243244573425 0.235027027155827 -0.533216216508430
n -1.878243244272560 0.261027027170074 -1.885216217249353
h -0.930243243753035 -0.104972973030502 -1.876216217244421
h -2.430243244575067 -0.321972973149422 -2.501216217586932
h -3.473243245146649 0.549027027327904 -0.603216216546788
c -2.408243244563010 -1.122972973588385 0.189783783887791
h -2.824243244790986 -0.980972973510570 1.186783784434168
h -3.072243244926894 -1.793972973956106 -0.358216216412526
c -1.044243243815508 -1.745972973929802 0.284783783939854
c -0.551243243545338 -2.539972974364933 -0.755216216630087
h -1.173243243886207 -2.724972974466316 -1.622216217105223
c 0.713756757147912 -3.120972974683329 -0.680216216588987
h 1.070756757343551 -3.740972975023104 -1.492216217033982
c 1.506756757582490 -2.920972974573725 0.447783784029179
h 2.484756758118452 -3.376972974823627 0.515783784066447
c 1.021756757316699 -2.140972974146273 1.497783784604603
h 1.619756757644416 -2.005972974072289 2.389783785093434
c -0.241243243375450 -1.557972973826776 1.415783784559661
h -0.622243243584248 -0.959972973499060 2.233783785007946

99.wfx

