%nprocs=6
%mem=4GB
#p blyp aug-cc-pvqz output=wfx scf=(conver=6) int=(grid=ultrafine)
 
title
 
0 1
C 0.0000000000 1.1357400000 0.7175030000
C 0.0000000000 1.1906610000 -0.6681080000
C 0.0000000000 0.0000000000 -1.3749440000
C 0.0000000000 -1.1906610000 -0.6681080000
C 0.0000000000 -1.1357400000 0.7175030000
N 0.0000000000 0.0000000000 1.4089920000
H 0.0000000000 2.0499110000 1.3017220000
H 0.0000000000 2.1458890000 -1.1758620000
H 0.0000000000 0.0000000000 -2.4577350000
H 0.0000000000 -2.1458890000 -1.1758620000
H 0.0000000000 -2.0499110000 1.3017220000

pyr.wfx

