%nprocs=6
%mem=4GB
#p blyp gen pseudo=read output=wfx scf=(conver=6) int=(grid=ultrafine)
 
title
 
0 1
Br -0.8364210000 -1.9548780000 0.0000000000
I 0.0000000000 0.4055900000 0.0000000000
O 1.1523450000 2.9389340000 0.0000000000
C 2.3647120000 2.9275870000 0.0000000000
H 2.9388490000 3.8644780000 0.0000000000
H 2.9288460000 1.9830150000 0.0000000000

Br     0 
S   10   1.00
  78967.5000000              0.0000280        
  11809.7000000              0.0002140        
   2687.1400000              0.0010560        
    760.0360000              0.0036880        
    241.8110000              0.0079340        
     38.4914000              0.1528680        
     24.0586000             -0.2786020        
     14.3587000             -0.2188500        
      4.3773700              0.4960050        
      2.3518200              0.5523410        
S   10   1.00
  78967.5000000             -0.0000110        
  11809.7000000             -0.0000860        
   2687.1400000             -0.0004350        
    760.0360000             -0.0014570        
    241.8110000             -0.0033810        
     38.4914000             -0.0576580        
     24.0586000              0.1123250        
     14.3587000              0.0756730        
      4.3773700             -0.2249200        
      2.3518200             -0.4067380        
S   1   1.00
      1.2510500              1.0000000        
S   1   1.00
      0.5294680              1.0000000        
S   1   1.00
      0.2418960              1.0000000        
S   1   1.00
      0.1064860              1.0000000        
S   1   1.00
      0.0407000              1.0000000        
P   8   1.00
    503.6320000              0.0004640        
     93.0023000              0.0054560        
     42.5100000             -0.0013070        
     26.5778000             -0.0887240        
      7.5809700              0.3001460        
      3.8588700              0.4722000        
      1.9430900              0.2982910        
      0.9242090              0.0537770        
P   8   1.00
    503.6320000             -0.0001290        
     93.0023000             -0.0017470        
     42.5100000              0.0018620        
     26.5778000              0.0234510        
      7.5809700             -0.0989990        
      3.8588700             -0.1577990        
      1.9430900             -0.1232600        
      0.9242090              0.1538350        
P   1   1.00
      0.4177330              1.0000000        
P   1   1.00
      0.1808530              1.0000000        
P   1   1.00
      0.0751540              1.0000000        
P   1   1.00
      0.0295000              1.0000000        
D   9   1.00
   1097.7200000              0.0001110        
    332.9290000              0.0011530        
    130.8000000              0.0076900        
     60.1271000              0.0357150        
     29.7430000              0.0930320        
     15.0381000              0.1885660        
      7.7313200              0.2835430        
      3.9619300              0.3179110        
      2.0044900              0.2481490        
D   1   1.00
      0.9732760              1.0000000        
D   1   1.00
      0.4146780              1.0000000        
D   1   1.00
      0.1747000              1.0000000        
D   1   1.00
      0.0747000              1.0000000        
F   1   1.00
      0.8255000              1.0000000        
F   1   1.00
      0.3409000              1.0000000        
F   1   1.00
      0.1613000              1.0000000        
G   1   1.00
      0.6582000              1.0000000        
G   1   1.00
      0.3067000              1.0000000        
****
C 0
aug-cc-pVQZ
****
H 0
aug-cc-pVQZ
****
I     0 
S   10   1.00
      1.690000E+04           4.000000E-05     
      2.541390E+03           2.940000E-04     
      5.744130E+02           1.214000E-03     
      1.509450E+02           2.596000E-03     
      2.916310E+01          -5.362300E-02     
      1.821960E+01           3.439170E-01     
      1.133650E+01          -3.674270E-01     
      6.924080E+00          -5.389040E-01     
      2.509810E+00           7.095670E-01     
      1.351130E+00           6.280610E-01     
S   10   1.00
      1.690000E+04           1.900000E-05     
      2.541390E+03           1.420000E-04     
      5.744130E+02           5.920000E-04     
      1.509450E+02           1.243000E-03     
      2.916310E+01          -2.272100E-02     
      1.821960E+01           1.577080E-01     
      1.133650E+01          -2.000920E-01     
      6.924080E+00          -2.161520E-01     
      2.509810E+00           4.134390E-01     
      1.351130E+00           5.345850E-01     
S   1   1.00
      6.163790E-01           1.0000000        
S   1   1.00
      3.834550E-01           1.0000000        
S   1   1.00
      1.800560E-01           1.0000000        
S   1   1.00
      8.232700E-02           1.0000000        
S   1   1.00
      3.310000E-02           1.0000000        
P   7   1.00
      6.491590E+02           9.500000E-05     
      1.480870E+02           6.290000E-04     
      2.010180E+01           4.532400E-02     
      1.044660E+01          -2.302310E-01     
      6.358830E+00          -4.960000E-03     
      3.048460E+00           5.139270E-01     
      1.559500E+00           5.060930E-01     
P   7   1.00
      6.491590E+02          -3.200000E-05     
      1.480870E+02          -2.530000E-04     
      2.010180E+01          -1.609800E-02     
      1.044660E+01           8.991000E-02     
      6.358830E+00          -1.565500E-02     
      3.048460E+00          -2.077830E-01     
      1.559500E+00          -2.480810E-01     
P   1   1.00
      7.689110E-01           1.0000000        
P   1   1.00
      3.548140E-01           1.0000000        
P   1   1.00
      1.547660E-01           1.0000000        
P   1   1.00
      6.469900E-02           1.0000000        
P   1   1.00
      2.570000E-02           1.0000000        
D   9   1.00
      5.854450E+02           2.500000E-05     
      1.774680E+02           2.310000E-04     
      6.921930E+01           1.173000E-03     
      2.863920E+01           5.584000E-03     
      1.271530E+01          -2.383000E-02     
      5.479270E+00           1.168140E-01     
      3.354930E+00           2.727310E-01     
      1.984230E+00           3.401740E-01     
      1.152540E+00           2.686990E-01     
D   1   1.00
      6.510170E-01           1.0000000        
D   1   1.00
      3.474450E-01           1.0000000        
D   1   1.00
      1.547000E-01           1.0000000        
D   1   1.00
      6.400000E-02           1.0000000        
F   1   1.00
      5.865000E-01           1.0000000        
F   1   1.00
      2.494000E-01           1.0000000        
F   1   1.00
      1.270000E-01           1.0000000        
G   1   1.00
      4.730000E-01           1.0000000        
G   1   1.00
      2.338000E-01           1.0000000        
****
O 0
aug-cc-pVQZ
****

BR     0
BR-ECP     4     10
g-ul potential
  1
2      1.0000000              0.0000000        
s-ul potential
  3
2     70.0242570             49.9628340        
2     31.1784120            370.0142050        
2      7.1565930             10.2414390        
p-ul potential
  4
2     46.7734710             99.1122440        
2     46.1841200            198.2530460        
2     21.7138580             28.2617400        
2     20.9417920             56.6233660        
d-ul potential
  6
2     50.6988390            -18.6058530        
2     50.6447640            -27.9232800        
2     15.4475090             -0.3796930        
2     15.5002590             -0.7805830        
2      2.8003910              0.0359680        
2      1.0774800              0.0943970        
f-ul potential
  2
2     14.4656060             -1.0912690        
2     21.2340650             -2.8876910        
I     0
I-ECP     4     28
g-ul potential
  1
2      1.00000000             0.00000000       
s-ul potential
  3
2     40.03337600            49.98964900       
2     17.30057600           281.00655600       
2      8.85172000            61.41673900       
p-ul potential
  4
2     15.72014100            67.41623900       
2     15.20822200           134.80769600       
2      8.29418600            14.56654800       
2      7.75394900            28.96842200       
d-ul potential
  4
2     13.81775100            35.53875600       
2     13.58780500            53.33975900       
2      6.94763000             9.71646600       
2      6.96009900            14.97750000       
f-ul potential
  4
2     18.52295000           -20.17661800       
2     18.25103500           -26.08807700       
2      7.55790100            -0.22043400       
2      7.59740400            -0.22164600       

BrIOCH2.wfx

