%nprocs=4
%mem=4GB
#p pbepbe aug-cc-pvtz output=wfx scf=(conver=6) int=(grid=ultrafine)

title

0 1
c -1.835301055153868 -0.118160956559266 0.000000000000000
c -0.606581327618692 0.396479498652332 0.000000000000000
c 0.606581327618692 -0.396479498652332 0.000000000000000
c 1.835301055153868 0.118160956559266 0.000000000000000
h -1.996101725791082 -1.191537392546770 0.000000000000000
h -2.715994990145597 0.512167502791723 0.000000000000000
h -0.477872888682869 1.476821824583189 0.000000000000000
h 0.477872888682869 -1.476821824583189 0.000000000000000
h 1.996101725791082 1.191537392546770 0.000000000000000
h 2.715994990145597 -0.512167502791723 0.000000000000000

butadiene.wfx

