%nprocs=4
%mem=4GB
#p pbepbe aug-cc-pvtz output=wfx scf=(conver=6) int=(grid=ultrafine)

title

0 1
c 1.085973143757682 0.000000000000000 0.568509703295675
c 0.713683934154656 0.000000000000000 -0.732249037041971
c -0.713683934154656 0.000000000000000 -0.732249037041971
c -1.085973143757682 0.000000000000000 0.568509703295675
o 0.000000000000000 0.000000000000000 1.372587690361149
h 2.042089580997770 0.000000000000000 1.064800599432689
h 1.370301041222333 0.000000000000000 -1.587355110866959
h -1.370301041222333 0.000000000000000 -1.587355110866959
h -2.042089580997770 0.000000000000000 1.064800599432689

furane.wfx

