%nprocs=4
%mem=4GB
#p pbepbe aug-cc-pvtz output=wfx scf=(conver=6) int=(grid=ultrafine)

title

0 1
c 1.228213090221415 0.191265912831080 -1.062654512996541
c -0.134366069843061 0.906629982666329 -0.765609789392256
c -0.134366069843061 0.906629982666329 0.765609789392256
c 1.228213090221415 0.191265912831080 1.062654512996541
c 1.074158212175212 -1.259238615940172 -0.664466583447230
c 1.074158212175212 -1.259238615940172 0.664466583447230
o 2.014280535645948 0.715110922543572 0.000000000000000
c -1.382565914558814 0.154572150319036 -1.167991996305212
c -1.382565914558814 0.154572150319036 1.167991996305212
n -2.030536397148663 -0.206052449818147 0.000000000000000
o -1.766901796788385 -0.102330149426796 2.277307370003908
o -1.766901796788385 -0.102330149426796 -2.277307370003908
h 1.667098813479807 0.414733671135212 -2.030813066791339
h -0.137845479584027 1.900351136289894 -1.213048600286653
h -0.137845479584027 1.900351136289894 1.213048600286653
h 1.667098813479807 0.414733671135212 2.030813066791339
h 0.898855849824039 -2.082284914265200 -1.342501037223114
h 0.898855849824039 -2.082284914265200 1.342501037223114
h -2.877037548349642 -0.756456819944235 0.000000000000000

P8.wfx

