%nprocs=4
%mem=2GB
#p b3lyp 6-31+G* output=wfx scf=(conver=6) int=(grid=ultrafine)

title

0 1
  O   -1.521483378  -1.716488413   0.495043660
  H   -1.062363600  -2.447333837   0.942523180
  H   -0.926219885  -0.836209544   0.371590833
  H   -1.946441714  -2.027010922  -0.322361388

01.001_oxonium--methylcyanate_1.wfx


