%nprocs=4
%mem=2GB
#p hf aug-cc-pvdz output=wfx scf=(conver=6) int=(grid=ultrafine)

title

1 1
  N   -1.376678580   1.495225042  -1.670772311
  H   -0.661760795   1.276850866  -0.919599616
  H   -0.920645618   1.903098735  -2.486251104
  H   -2.075729519   2.146928368  -1.315885175
  H   -1.830894748   0.621079448  -1.936966169

02.004_NHk-O__ammonium--nitromethane_1.wfx

