%nprocs=4
%mem=2GB
#p hf aug-cc-pvdz output=wfx scf=(conver=6) int=(grid=ultrafine)

title

1 0
  N   -0.005156717   0.027401505   2.669644732
  H   -0.003019297   0.057513514   1.594149372
  H    0.822944025   0.490411135   3.040976543
  H   -0.003677188  -0.946025893   2.972823075
  H   -0.836842838   0.486776067   3.037470832
  H    0.876949172   0.141570135  -2.886403071
  H   -0.865519769   0.143725264  -2.889663531
  H    0.002769056  -1.295930326  -2.270171674
  H    0.003886921   1.516355336  -0.963077968
  C    0.004233979  -0.212287678  -2.330581632
  C    0.002489355   0.415707479  -0.993322912
  O   -0.000371403  -0.214054866   0.053436712

02.001_NHk-O__ammonium--acetaldehyde_100.wfx

