%nprocs=4
%mem=2GB
#p b3lyp 6-31+G* output=wfx scf=(conver=6) int=(grid=ultrafine)

title

-1 1
  H    2.719896586   0.428848836   0.315506516
  H    1.854338600   1.216640284   1.661903145
  H    2.331958999   2.168757253   0.229960514
  H   -1.025777079  -2.010226931   1.698917908
  H   -0.160536448  -2.798107028   0.352552866
  H    0.583649805  -2.736727597   1.976620284
  O    0.738548264   0.961136333  -0.087816392
  C    0.076009155  -0.153008133   0.138275347
  O   -0.995996268  -0.362048732  -0.428514382
  O    0.637580908  -0.976236246   0.981067662
  C   -0.053381571  -2.224252522   1.267336349
  C    2.006602582   1.199993699   0.587635187

02.002_ammonium--dimethylcarbonate_2.wfx


