%nprocs=4
%mem=2GB
#p b3lyp 6-31+G* output=wfx scf=(conver=6) int=(grid=ultrafine)

title

-1 1
  N   -1.786111923   0.590129888  -0.040811353
  C   -2.024921712  -0.696799479  -0.263887590
  N   -1.011810548  -1.552973326  -0.323514093
  N   -3.278468515  -1.128148630  -0.427291735
  H   -0.837002790   0.928377147   0.083905788
  H   -2.536672588   1.255032158   0.007697558
  H   -0.055286478  -1.235275995  -0.201435397
  H   -1.169103218  -2.530100213  -0.491655197
  H   -4.057765114  -0.496634037  -0.385692747
  H   -3.479563581  -2.097016386  -0.596702235
  H    5.190263003   2.798153847   0.352957886
  H    5.330737061   1.696254284   1.748936702
  H    5.800693697   1.108274710   0.131469366
  C    5.139769890   1.767304405   0.680270702
  N    3.742154204   1.289565363   0.473534422
  O    3.567982318   0.097332148   0.273683025
  O    2.840540051   2.110876152   0.538659998

02.015_guanidinium--nitromethane_200.wfx


