%nprocs=4
%mem=2GB
#p b3lyp 6-31+G* output=wfx scf=(conver=6) int=(grid=ultrafine)

title

-1 1
  C    0.407297876  -1.425689419  -1.753134350
  N   -0.251668943  -0.125950459  -1.430213993
  H   -0.225609415  -0.027559403  -0.395900908
  C    0.511053642   1.028749891  -1.989441119
  C   -1.678694242  -0.107233108  -1.862284186
  H    1.419772037  -1.409135164  -1.363565032
  H    0.421491694  -1.557399109  -2.831192226
  H   -0.153709233  -2.229354843  -1.287146478
  H    1.521714963   1.002077583  -1.595737578
  H    0.022984323   1.950512778  -1.689613309
  H    0.527544094   0.951063172  -3.072701771
  H   -2.200848934  -0.933521956  -1.390440692
  H   -1.723563199  -0.209369062  -2.942707432
  H   -2.126127939   0.834507077  -1.560685042
  H    0.510645041  -0.514647169   4.011185788
  H    0.590913414   1.219283348   3.844581915
  H    1.799259249   0.205207217   2.998492981
  H   -1.239939109   0.286779297   2.381783469
  C    0.761341993   0.282914623   3.306998252
  C   -0.164165586   0.214680135   2.151286805
  O    0.193209042   0.086829732   0.994870217

02.009_trimethylammonium--acetaldehyde_085.wfx


