%nprocs=4
%mem=2GB
#p b3lyp 6-31+G* output=wfx scf=(conver=6) int=(grid=ultrafine)

title

-1 1
  N   -2.041123496   1.328285495  -2.089030747
  H   -1.459924376   2.156768699  -2.198412099
  H   -2.152529334   0.878229328  -2.995399263
  H   -2.957531985   1.608053495  -1.744930148
  H   -1.568140965   0.635238385  -1.379955620
  H    2.634074881   0.578441904   0.172790330
  H    1.768516895   1.366233352   1.519186959
  H    2.246137294   2.318350321   0.087244328
  H   -1.111598784  -1.860633863   1.556201722
  H   -0.246358153  -2.648513960   0.209836680
  H    0.497828100  -2.587134529   1.833904098
  O    0.652726559   1.110729401  -0.230532578
  C   -0.009812550  -0.003415065  -0.004440839
  O   -1.081817973  -0.212455664  -0.571230568
  O    0.551759203  -0.826643178   0.838351476
  C   -0.139203276  -2.074659454   1.124620163
  C    1.920780877   1.349586767   0.444919001

02.002_ammonium--dimethylcarbonate_085.wfx


