%nprocs=4
%mem=2GB
#p b3lyp 6-31+G* output=wfx scf=(conver=6) int=(grid=ultrafine)

title

-1 1
  N   -1.376678580   1.495225042  -1.670772311
  H   -0.661760795   1.276850866  -0.919599616
  H   -0.920645618   1.903098735  -2.486251104
  H   -2.075729519   2.146928368  -1.315885175
  H   -1.830894748   0.621079448  -1.936966169
  H    2.136266878  -1.013808364   3.587218811
  H    2.165272553  -2.565639861   2.669784149
  H    3.373332977  -1.268368505   2.339680477
  C    2.356274067  -1.501382958   2.641757851
  N    1.451377033  -0.900479907   1.622119528
  O    1.534332757   0.323197672   1.450724680
  O    0.683534333  -1.605770695   1.008891462

02.004_ammonium--nitromethane_200.wfx


