%nprocs=4
%mem=2GB
#p hf aug-cc-pvdz output=wfx scf=(conver=6) int=(grid=ultrafine)

title

0 1
  C    1.857900512   1.646878435   1.334313512
  H    1.523573963   2.341830040   0.565297483
  H    2.766953768   2.036393252   1.784456656
  H    1.085292584   1.591148480   2.099866005
  C    2.037201732   0.285449791   0.719500499
  O    1.097062763  -0.307918775   0.161487091
  N    3.244006298  -0.272613275   0.790214350
  H    3.980256909   0.234358326   1.248274972
  C    3.539988569  -1.585875147   0.232150046
  H    2.919168678  -2.346938076   0.699646166
  H    3.353952116  -1.594665499  -0.839506962
  H    4.584765405  -1.812145993   0.416698519

02.007_NHk-O__imidazolium--Nmethylacetamide_2.wfx

