%nprocs=4
%mem=2GB
#p b3lyp 6-31+G* output=wfx scf=(conver=6) int=(grid=ultrafine)

title

-1 1
  N   -0.005156717   0.027401505   2.669644732
  H   -0.003019297   0.057513514   1.594149372
  H    0.822944025   0.490411135   3.040976543
  H   -0.003677188  -0.946025893   2.972823075
  H   -0.836842838   0.486776067   3.037470832
  H    0.877213961   0.114413297  -3.040474337
  H   -0.865254980   0.116568426  -3.043734797
  H    0.003033845  -1.323087164  -2.424242940
  H    0.004151710   1.489198498  -1.117149234
  C    0.004498768  -0.239444516  -2.484652898
  C    0.002754144   0.388550641  -1.147394178
  O   -0.000106614  -0.241211704  -0.100634554

02.001_ammonium--acetaldehyde_110.wfx


