%nprocs=4
%mem=2GB
#p hf aug-cc-pvdz output=wfx scf=(conver=6) int=(grid=ultrafine)

title

1 0
  N   -1.376678580   1.495225042  -1.670772311
  H   -0.661760795   1.276850866  -0.919599616
  H   -0.920645618   1.903098735  -2.486251104
  H   -2.075729519   2.146928368  -1.315885175
  H   -1.830894748   0.621079448  -1.936966169
  H    1.148024780  -0.584664427   2.520572878
  H    1.177030455  -2.136495924   1.603138216
  H    2.385090879  -0.839224568   1.273034544
  C    1.368031969  -1.072239021   1.575111918
  N    0.463134935  -0.471335970   0.555473595
  O    0.546090659   0.752341609   0.384078747
  O   -0.304707765  -1.176626758  -0.057754471

02.004_NHk-O__ammonium--nitromethane_110.wfx

