%nprocs=4
%mem=2GB
#p b3lyp 6-31+G* output=wfx scf=(conver=6) int=(grid=ultrafine)

title

-1 1
  H    3.254223935   1.575971841   2.105439148
  H    3.982765545   1.182933465  -0.494814140
  H    0.653375222   0.755059962   2.233375682
  H    1.754640107   0.160932321  -1.697170648
  C    3.024600485   0.976319705  -0.053335311
  C    2.641376449   1.183079940   1.314409489
  C    1.357909760   0.789214689   1.423777409
  O    0.898253918   0.341385318   0.200061056
  C    1.949449227   0.470076973  -0.687485499

02.014_guanidinium--furan_2.wfx


