%nprocs=4
%mem=2GB
#p b3lyp 6-31+G* output=wfx scf=(conver=6) int=(grid=ultrafine)

title

-1 1
  C    0.929048510  -1.190929560  -2.140703908
  N   -0.107011514  -0.183477542  -1.775867337
  H   -0.074781141  -0.050508839  -0.743449558
  C    0.174920201   1.146316869  -2.391004161
  C   -1.481661611  -0.660692668  -2.105905192
  H    1.903008141  -0.821162226  -1.835994944
  H    0.912436370  -1.345768733  -3.215695095
  H    0.709461226  -2.123156572  -1.629921265
  H    1.162373180   1.474013966  -2.082295085
  H   -0.571587939   1.854806411  -2.047608933
  H    0.134122355   1.053332250  -3.472476366
  H   -1.658174263  -1.602696327  -1.596782893
  H   -1.561987008  -0.796795659  -3.180574081
  H   -2.198592900   0.079996407  -1.767497333
  H   -1.122879722   1.377499616   2.477901507
  H    1.661990777  -1.262369056   1.328440004
  H    2.015955361  -0.176017914   2.694062993
  H    0.865915049  -1.479042608   2.906519643
  O   -0.258798991   0.325736088   0.627388418
  C    0.134009968   0.158971488   1.772331538
  O   -0.412112782   0.800499130   2.794678680
  C    1.242389641  -0.752184046   2.188000891

02.011_trimethylammonium--aceticacid_085.wfx


