%nprocs=4
%mem=2GB
#p b3lyp 6-31+G* output=wfx scf=(conver=6) int=(grid=ultrafine)

title

-1 1
  N   -1.171055239   0.883129879  -0.190652445
  C   -1.704290407  -0.334625344  -0.191792459
  N   -0.921194994  -1.395663920  -0.039211169
  N   -3.021699643  -0.488814065  -0.345769017
  H   -0.167974861   1.014121178  -0.074331560
  H   -1.747525618   1.697143282  -0.304753574
  H    0.082349306  -1.283235598   0.078306946
  H   -1.301823063  -2.324766949  -0.036922587
  H   -3.630755306   0.300698603  -0.462391235
  H   -3.444135661  -1.399647346  -0.349245911
  H    3.065315596   2.057754534   1.151363016
  H    3.278727445   1.965655901  -0.584842316
  H    3.998436456   0.671252633   0.455939877
  C    3.169177023   1.359794602   0.317492917
  N    1.896478061   0.659871429   0.198177680
  O    1.961272696  -0.540703376   0.269807529

02.005_guanidinium--nitrosomethane_105.wfx


