%nprocs=4
%mem=2GB
#p b3lyp 6-31+G* output=wfx scf=(conver=6) int=(grid=ultrafine)

title

-1 1
  H    2.975843054   2.022395857   1.142243941
  H    3.189254903   1.930297224  -0.593961391
  H    3.908963914   0.635893956   0.446820802
  C    3.079704481   1.324435925   0.308373842
  N    1.807005519   0.624512752   0.189058605
  O    1.871800154  -0.576062053   0.260688454

02.005_guanidinium--nitrosomethane_2.wfx


