%nprocs=4
%mem=2GB
#p b3lyp 6-31+G* output=wfx scf=(conver=6) int=(grid=ultrafine)

title

-1 1
  C    0.414116098  -1.278379014  -2.193586897
  N   -0.152185619  -0.192862324  -1.338588452
  H    0.171194505  -0.361522404  -0.366528025
  C    0.357804489   1.151710699  -1.741736110
  C   -1.645039635  -0.229238593  -1.315039144
  H    1.497306925  -1.242314596  -2.136534783
  H    0.089641585  -1.124519813  -3.218558349
  H    0.056108794  -2.236034478  -1.829465469
  H    1.442063366   1.144872714  -1.693947771
  H   -0.039505957   1.894400838  -1.057782211
  H    0.031842682   1.362382365  -2.756112439
  H   -1.967108648  -1.205735993  -0.967660126
  H   -2.017558726  -0.050643840  -2.319492138
  H   -2.001658036   0.541497474  -0.639741499
  H   -0.648432593   0.599084668   3.950392120
  H    0.768117588   1.575552190   3.648619738
  H    0.970606746  -0.211485732   3.872040768
  C    0.339534479   0.583963576   3.483676571
  N    0.116160640   0.465507420   2.051785780
  O    0.660984436  -0.484436244   1.535142002

02.012_trimethylammonium--nitrosomethane_110.wfx


