%nprocs=4
%mem=2GB
#p b3lyp 6-31+G* output=wfx scf=(conver=6) int=(grid=ultrafine)

title

-1 1
  H   -1.882393456   1.202697556   1.670861677
  H   -1.307765751   0.370356369   3.145158922
  H   -2.055434081  -0.547281778   1.805203429
  H    2.587110422  -0.984880761   2.004162425
  H    2.102954511  -0.171376845   0.483418853
  H    2.758960279   0.752815227   1.870654955
  C   -1.419206148   0.298557476   2.066373454
  N   -0.121850320   0.119802199   1.409084226
  N    0.833557592   0.084591172   2.181153578
  C    2.138057776  -0.091208184   1.571904843

03.010_trimethylammonium--dimethyldiazene_2.wfx


