%nprocs=4
%mem=2GB
#p b3lyp 6-31+G* output=wfx scf=(conver=6) int=(grid=ultrafine)

title

-1 1
  N    2.878249139   0.132419162   0.159356036
  H    3.258952258  -0.499847631  -0.537018830
  H    3.379742592   1.007326082   0.041118932
  H    3.161779584  -0.227771088   1.064622411

03.003_guanidinium--ammonia_2.wfx


