%nprocs=4
%mem=2GB
#p b3lyp 6-31+G* output=wfx scf=(conver=6) int=(grid=ultrafine)

title

0 1
  C   -2.897408581   0.261633526  -0.718519220
  C   -1.577160834   0.138131615  -0.426053981
  N   -1.451426279   0.291134433   0.938368950
  H   -0.542772388   0.246782244   1.469478036
  C   -2.646328334   0.501241780   1.471144584
  N   -3.541306485   0.487341235   0.481063721
  H   -3.424302008   0.210264225  -1.651888488
  H   -0.727283861  -0.042328955  -1.056708257
  H   -2.861465852   0.655607644   2.512227048
  H   -4.532884286   0.621828862   0.599987882

03.006_imidazolium--aniline_1.wfx


