%nprocs=4
%mem=2GB
#p hf aug-cc-pvdz output=wfx scf=(conver=6) int=(grid=ultrafine)

title

1 1
  N   -0.148694578  -3.409567599   0.000000000
  H   -0.087922926  -2.332489211   0.000000000
  H    0.789060482  -3.807883208   0.000000000
  H   -0.645553072  -3.729173637  -0.829916654
  H   -0.645553072  -3.729173637   0.829916654

03.002_NHk-N__ammonium--methylcyanate_1.wfx

