%nprocs=4
%mem=2GB
#p b3lyp 6-31+G* output=wfx scf=(conver=6) int=(grid=ultrafine)

title

-1 1
  N    0.111620855  -3.434902061   0.000000000
  H    0.082595615  -2.384721038   0.000000000
  H   -0.358757685  -3.791814028  -0.831749510
  H   -0.358757685  -3.791814028   0.831749510
  H    1.080916213  -3.752497220   0.000000000
  H    1.011735151   4.415192851  -0.893579186
  H    1.011735151   4.415192851   0.893579186
  H   -0.183424643   5.377045730   0.000000000
  C    0.391815043   4.460030859   0.000000000
  N   -0.584686923   3.352149896   0.000000000
  N   -0.234918746   2.209229133   0.000000000
  N   -0.038098047   1.087586468   0.000000000

03.001_ammonium--methylazide_200.wfx


