%nprocs=4
%mem=2GB
#p hf aug-cc-pvdz output=wfx scf=(conver=6) int=(grid=ultrafine)

title

1 1
  N   -1.835632192   0.281062895   0.660270197
  C   -2.216723193  -0.446027628  -0.383260227
  N   -1.269753700  -1.002318483  -1.129574112
  N   -3.509691413  -0.608152959  -0.675992734
  H   -0.828961039   0.347563378   0.830042742
  H   -2.497054273   0.720404611   1.273177341
  H   -0.302770057  -0.846482804  -0.835236202
  H   -1.485700618  -1.574091649  -1.924926135
  H   -4.227861933  -0.186467213  -0.115498474
  H   -3.800723195  -1.154435145  -1.466320912

03.015_NHk-N__guanidinium--Nmethyl2propanimine_1.wfx

