%nprocs=4
%mem=2GB
#p hf aug-cc-pvdz output=wfx scf=(conver=6) int=(grid=ultrafine)

title

0 1
  H    1.035901635  -2.892700396  -1.056721855
  H    0.725897523  -1.420855117  -1.987580032
  H    1.977162887  -1.430455632  -0.733000361
  H    1.348318361  -1.454750517   1.600855344
  H    0.377369844  -2.916936469   1.381299788
  H   -0.363836982  -1.459964629   2.057161358
  H   -1.404737352  -2.901787277  -0.408002219
  H   -2.070716112  -1.446647575   0.345640832
  C    0.990256901  -1.801162862  -1.002851668
  N    0.001055946  -1.350512007  -0.012837915
  C    0.360823528  -1.824366891   1.331693232
  C   -1.346321433  -1.809868556  -0.380672063
  H   -1.609868202  -1.428486087  -1.365210110

03.013_NHk-N__trimethylammonium--trimethylamine_2.wfx

