%nprocs=4
%mem=2GB
#p b3lyp 6-31+G* output=wfx scf=(conver=6) int=(grid=ultrafine)

title

0 1
  C    0.804517514  -1.373674860  -1.966325078
  N    0.136509233  -0.113416295  -1.529579709
  H    0.228867620  -0.057148468  -0.487999652
  C    0.800427618   1.093821942  -2.101545982
  C   -1.325102898  -0.133281102  -1.831175121
  H    1.853172774  -1.331053942  -1.689751739
  H    0.709858436  -1.470829274  -3.044018597
  H    0.325932218  -2.213921703  -1.473549854
  H    1.847718448   1.088321753  -1.816856016
  H    0.315738135   1.981401506  -1.707683518
  H    0.710131408   1.069535222  -3.183721368
  H   -1.772139335  -0.996720377  -1.348620789
  H   -1.465177778  -0.195727288  -2.906442261
  H   -1.775464221   0.778765321  -1.452151391

03.012_trimethylammonium--methylazide_1.wfx


