%nprocs=4
%mem=2GB
#p b3lyp 6-31+G* output=wfx scf=(conver=6) int=(grid=ultrafine)

title

-1 1
  N   -0.148694578  -3.409567599   0.000000000
  H   -0.087922926  -2.332489211   0.000000000
  H    0.789060482  -3.807883208   0.000000000
  H   -0.645553072  -3.729173637  -0.829916654
  H   -0.645553072  -3.729173637   0.829916654
  H   -1.180310283   2.173523774   0.900143993
  H   -0.083380542   3.266202304   0.000000000
  H   -1.180310283   2.173523774  -0.900143993
  C   -0.590786840   2.311126999   0.000000000
  O    0.508282108   1.317081192   0.000000000
  C    0.215150620   0.094950368   0.000000000
  N    0.009350269  -1.040867194   0.000000000

03.002_ammonium--methylcyanate_080.wfx


