%nprocs=4
%mem=2GB
#p b3lyp 6-31+G* output=wfx scf=(conver=6) int=(grid=ultrafine)

title

0 1
  C   -1.010777060   1.794617164   1.014191330
  N   -0.001234495   1.362265179   0.013008446
  H   -0.000453505   0.254953010   0.002510737
  C   -0.360375546   1.817517496  -1.355287340
  C    1.366550413   1.802137944   0.392677302
  H   -1.984266735   1.411313135   0.724093375
  H   -1.043534722   2.880552147   1.057153312
  H   -0.736685484   1.398983823   1.987390623
  H   -1.343000341   1.432573094  -1.610306341
  H    0.374905099   1.439393484  -2.058953043
  H   -0.373503002   2.904192637  -1.389021362
  H    1.605638487   1.407619801   1.375505892
  H    1.410117144   2.888326356   0.414333386
  H    2.075905258   1.422913687  -0.336551483

03.013_trimethylammonium--trimethylamine_1.wfx


