%nprocs=4
%mem=2GB
#p hf aug-cc-pvdz output=wfx scf=(conver=6) int=(grid=ultrafine)

title

0 1
  H    3.487390539   2.455573485   0.672294012
  H    4.066193205   0.833680802   1.188566426
  H    4.889463169   1.699654529  -0.144132459
  C    3.948592484   1.524355686   0.359982794
  O    3.094732298   0.892918446  -0.666457241
  C    1.917156852   0.575199624  -0.343428078
  N    0.829533516   0.262835337  -0.104465645

03.014_NHk-N__guanidinium--methylcyanate_2.wfx

