%nprocs=4
%mem=2GB
#p hf aug-cc-pvdz output=wfx scf=(conver=6) int=(grid=ultrafine)

title

0 1
  H    4.261274185   1.494087134   1.123694871
  H    4.650161568   0.029804615   0.194590815
  H    4.335173416   1.560279422  -0.651843099
  C    1.559305917   0.359808095   0.078172634
  N    2.682737553   0.622774070   0.134846530
  C    4.067158545   0.947174199   0.204694073

04.004_NHk-C__guanidinium--methylisocyanide_2.wfx

