%nprocs=4
%mem=2GB
#p b3lyp 6-31+G* output=wfx scf=(conver=6) int=(grid=ultrafine)

title

-1 1
  N    0.000001655   0.000001458   2.921046025
  H    0.000001416   0.000000806   1.835940144
  H    0.958437807   0.000001146   3.267461025
  H   -0.479215840  -0.830028562   3.267461882
  H   -0.479215984   0.830031278   3.267461868
  H   -1.027331236  -0.000000399  -2.939202024
  H    0.513662724   0.889692946  -2.939202970
  H    0.513662788  -0.889693726  -2.939203520
  C    0.000000081  -0.000000743  -0.008050359
  N   -0.000000661  -0.000000828  -1.159608484
  C   -0.000001601  -0.000000538  -2.584518978

04.001_ammonium--methylisocyanide_105.wfx


