%nprocs=4
%mem=2GB
#p hf aug-cc-pvdz output=wfx scf=(conver=6) int=(grid=ultrafine)

title

0 1
  H    1.010600782   0.550461831   4.285073411
  H   -0.558748391  -0.278122735   4.393633830
  H    0.930255057  -1.221299217   4.160255034
  C    0.144017848  -0.097324311   1.369896757
  N    0.268333474  -0.183257300   2.513739892
  C    0.422109745  -0.289620647   3.925566730

04.003_NHk-C__trimethylammonium--methylisocyanide_2.wfx

