%nprocs=4
%mem=2GB
#p hf aug-cc-pvdz output=wfx scf=(conver=6) int=(grid=ultrafine)

title

1 0
  N   -1.575919306   0.806143489  -0.107755840
  C   -1.977733354  -0.459476553  -0.099443963
  N   -1.063197673  -1.419310999  -0.025236019
  N   -3.276083718  -0.760941045  -0.164383235
  H   -0.582797541   0.999148534  -0.057007990
  H   -2.226620324   1.567989364  -0.162465017
  H   -0.086486150  -1.154690177   0.022760173
  H   -1.314616855  -2.390658002  -0.015614980
  H   -3.976362429  -0.043666761  -0.220856824
  H   -3.591566931  -1.714095309  -0.159012349
  H    3.934688460   1.418632557   1.107262269
  H    4.323575843  -0.045649962   0.178158213
  H    4.008587691   1.484824845  -0.668275701
  C    1.232720192   0.284353518   0.061740032
  N    2.356151828   0.547319493   0.118413928
  C    3.740572820   0.871719622   0.188261471

04.004_NHk-C__guanidinium--methylisocyanide_085.wfx

