%nprocs=4
%mem=2GB
#p b3lyp 6-31+G* output=wfx scf=(conver=6) int=(grid=ultrafine)

title

-1 1
  N   -1.575919306   0.806143489  -0.107755840
  C   -1.977733354  -0.459476553  -0.099443963
  N   -1.063197673  -1.419310999  -0.025236019
  N   -3.276083718  -0.760941045  -0.164383235
  H   -0.582797541   0.999148534  -0.057007990
  H   -2.226620324   1.567989364  -0.162465017
  H   -0.086486150  -1.154690177   0.022760173
  H   -1.314616855  -2.390658002  -0.015614980
  H   -3.976362429  -0.043666761  -0.220856824
  H   -3.591566931  -1.714095309  -0.159012349
  H    4.370136093   1.519238660   1.129172405
  H    4.759023476   0.054956141   0.200068349
  H    4.444035324   1.585430948  -0.646365565
  C    1.668167825   0.384959621   0.083650168
  N    2.791599461   0.647925596   0.140324064
  C    4.176020453   0.972325725   0.210171607

04.004_guanidinium--methylisocyanide_105.wfx


