%nprocs=4
%mem=2GB
#p hf aug-cc-pvdz output=wfx scf=(conver=6) int=(grid=ultrafine)

title

1 1
  N    0.000001655   0.000001458   2.921046025
  H    0.000001416   0.000000806   1.835940144
  H    0.958437807   0.000001146   3.267461025
  H   -0.479215840  -0.830028562   3.267461882
  H   -0.479215984   0.830031278   3.267461868

04.001_NHk-C__ammonium--methylisocyanide_1.wfx

