%nprocs=4
%mem=2GB
#p hf aug-cc-pvdz output=wfx scf=(conver=6) int=(grid=ultrafine)

title

0 1
  H   -1.027331172  -0.000000325  -2.851392952
  H    0.513662788   0.889693020  -2.851393898
  H    0.513662852  -0.889693652  -2.851394448
  C    0.000000145  -0.000000669   0.079758713
  N   -0.000000597  -0.000000754  -1.071799412
  C   -0.000001537  -0.000000464  -2.496709906

04.001_NHk-C__ammonium--methylisocyanide_2.wfx

