%nprocs=4
%mem=2GB
#p b3lyp 6-31+G* output=wfx scf=(conver=6) int=(grid=ultrafine)

title

-1 1
  O   -0.204298186  -0.737785523   2.213977699
  H   -0.297980176  -0.785684740   1.223370934
  C    0.712295334   0.292530547   2.494426147
  H    1.722757814  -0.100618557   2.690881627
  H    0.780442301   0.999498096   1.663753855
  H    0.393939328   0.832336685   3.394752649
  C   -0.338137767  -0.045923346  -2.752089461
  C   -0.118935898   0.147931653  -1.233731122
  O   -0.427114519  -0.853972640  -0.527452957
  O    0.329001787   1.245055333  -0.851353860
  H   -1.392509670  -0.254509758  -2.943136578
  H    0.227770415  -0.913474133  -3.096166450
  H   -0.033890218   0.836761566  -3.312335633

05.004_methanol--acetate_105.wfx


