%nprocs=4
%mem=2GB
#p b3lyp 6-31+G* output=wfx scf=(conver=6) int=(grid=ultrafine)

title

-1 1
  O   -0.545165845  -2.952028234  -1.200939738
  H   -0.454201379  -2.059658579  -1.607994472
  H   -0.407250553  -2.604918400  -0.289487970
  C    0.058446573   0.316723871   0.128878840
  O   -0.077013476   0.213579354  -1.127067004
  O   -0.002919003  -0.645545180   0.951457409
  C    0.321754588   1.742166912   0.708704543
  O   -0.695050830   2.414762373   1.024545474
  O    1.527432997   2.091969059   0.808735355

05.001_water--oxalate_125.wfx


