%nprocs=4
%mem=2GB
#p hf aug-cc-pvdz output=wfx scf=(conver=6) int=(grid=ultrafine)

title

-1 0
  O   -0.200102966  -1.998204668  -1.994996425
  H   -0.150044238  -1.339152027  -1.263629579
  H   -0.541292159  -2.775745672  -1.549597553
  N    0.059839784   0.629644243   0.643669800
  O   -0.281829947  -0.579850939   0.461616598
  O    0.478060637   1.302846354  -0.320041668
  O   -0.029275758   1.123376471   1.785554176

05.013_OH-Oa__water--nitrate_105.wfx

