%nprocs=4
%mem=2GB
#p b3lyp 6-31+G* output=wfx scf=(conver=6) int=(grid=ultrafine)

title

-1 1
  O   -0.545165845  -2.952028234  -1.200939738
  H   -0.454201379  -2.059658579  -1.607994472
  H   -0.407250553  -2.604918400  -0.289487970
  C    0.010642056   0.057820613   0.023554142
  O   -0.124817993  -0.045323904  -1.232391702
  O   -0.050723520  -0.904448438   0.846132711
  C    0.273950071   1.483263654   0.603379845
  O   -0.742855347   2.155859115   0.919220776
  O    1.479628480   1.833065801   0.703410657

05.001_water--oxalate_110.wfx


