%nprocs=4
%mem=2GB
#p hf aug-cc-pvdz output=wfx scf=(conver=6) int=(grid=ultrafine)

title

-2 0
  O   -0.545165845  -2.952028234  -1.200939738
  H   -0.454201379  -2.059658579  -1.607994472
  H   -0.407250553  -2.604918400  -0.289487970
  C   -0.005292783  -0.028480473  -0.011554090
  O   -0.140752832  -0.131624990  -1.267499934
  O   -0.066658359  -0.990749524   0.811024479
  C    0.258015232   1.396962568   0.568271613
  O   -0.758790186   2.069558029   0.884112544
  O    1.463693641   1.746764715   0.668302425

05.001_OH-Oa__water--oxalate_105.wfx

