%nprocs=4
%mem=2GB
#p b3lyp 6-31+G* output=wfx scf=(conver=6) int=(grid=ultrafine)

title

-1 1
  O   -1.491537052   1.456932722  -1.005297628
  H   -1.152166816   0.809683119  -0.344795821
  C   -0.770448190   1.264818571  -2.198308915
  H   -0.928405570   2.136399682  -2.839956168
  H    0.299665214   1.148821814  -2.010776683
  H   -1.110358605   0.377151783  -2.751892538
  N    0.717914742  -1.002617483   1.103611131
  O   -0.520574334  -0.722416020   1.096869330
  O    1.478924780  -0.450225750   0.279397642
  O    1.154412992  -1.824745747   1.930293583

05.006_methanol--nitrate_125.wfx


