%nprocs=4
%mem=2GB
#p b3lyp 6-31+G* output=wfx scf=(conver=6) int=(grid=ultrafine)

title

-1 1
  O    0.181818524  -2.064298258  -1.296939607
  H    0.261754568  -1.094953727  -1.068107513
  H   -0.228779188  -2.417819200  -0.505331155
  N   -0.218834415   0.234570174   0.603526734
  O    0.301953611   0.336306800  -0.551567927
  O   -0.307110296   1.286685820   1.254245997

05.014_water--nitrite_090.wfx


