%nprocs=4
%mem=2GB
#p hf aug-cc-pvdz output=wfx scf=(conver=6) int=(grid=ultrafine)

title

-2 0
  O   -0.545165845  -2.952028234  -1.200939738
  H   -0.454201379  -2.059658579  -1.607994472
  H   -0.407250553  -2.604918400  -0.289487970
  C    0.297469160   1.611240161   0.655502328
  O    0.162009111   1.508095644  -0.600443516
  O    0.236103584   0.648971110   1.478080897
  C    0.560777175   3.036683202   1.235328031
  O   -0.456028243   3.709278663   1.551168962
  O    1.766455584   3.386485349   1.335358843

05.001_OH-Oa__water--oxalate_200.wfx

