%nprocs=4
%mem=2GB
#p hf aug-cc-pvdz output=wfx scf=(conver=6) int=(grid=ultrafine)

title

-1 0
  O   -1.491537052   1.456932722  -1.005297628
  H   -1.152166816   0.809683119  -0.344795821
  C   -0.770448190   1.264818571  -2.198308915
  H   -0.928405570   2.136399682  -2.839956168
  H    0.299665214   1.148821814  -2.010776683
  H   -1.110358605   0.377151783  -2.751892538
  N    0.566332546  -0.634913689   0.757611495
  O   -0.672156529  -0.354712226   0.750869694
  O    1.327342584  -0.082521956  -0.066601994
  O    1.002830797  -1.457041953   1.584293947

05.006_OH-Oa__methanol--nitrate_095.wfx

