%nprocs=4
%mem=2GB
#p hf aug-cc-pvdz output=wfx scf=(conver=6) int=(grid=ultrafine)

title

0 1
  C    3.755731830  -0.940607550   0.039806116
  O    3.614006326  -0.914256298   1.248939312
  O    2.862841721  -0.618955711  -0.858060317
  H    1.905231997  -0.323266571  -0.481378789
  C    5.066462187  -1.379547067  -0.600170572
  H    5.798266000  -1.616075190   0.167043244
  H    4.891768375  -2.253368636  -1.228055777
  H    5.446487099  -0.588681445  -1.246929774

05.002_OH-Oa__aceticacid--benzoate_1.wfx

