%nprocs=4
%mem=2GB
#p b3lyp 6-31+G* output=wfx scf=(conver=6) int=(grid=ultrafine)

title

-1 1
  O   -0.099826894   1.095543795   0.573162690
  C   -1.262760725   1.387429352   0.991385091
  O   -1.589639997   2.413132261   1.600620572
  C   -2.375922343   0.371635796   0.702919932
  C   -3.631738378   0.557105910   1.280594642
  C   -4.666916058  -0.337106452   1.042506795
  C   -4.463426499  -1.432883056   0.209019908
  C   -3.217571915  -1.623248850  -0.377277210
  C   -2.181187238  -0.729436453  -0.129111541
  H   -3.765611188   1.422140420   1.913598322
  H   -5.634137019  -0.180785280   1.503347959
  H   -5.268540410  -2.130816056   0.018392870
  H   -3.049907313  -2.471696719  -1.028134796
  H   -1.214872001  -0.885786811  -0.582455192

05.009_phenol--benzoate_2.wfx


