%nprocs=4
%mem=2GB
#p hf aug-cc-pvdz output=wfx scf=(conver=6) int=(grid=ultrafine)

title

-1 0
  O   -0.385191390   1.504934957  -1.024064016
  H   -0.119859355   1.038602603  -0.187587752
  C   -0.249540071   0.590796658  -2.083573853
  H   -1.034857186   0.775465031  -2.825662383
  H    0.718746649   0.697341510  -2.597885212
  H   -0.331751805  -0.439617437  -1.728846555
  N    0.364204323  -0.965181351   1.527527282
  O    0.424040903   0.289299173   1.369984355
  O   -0.047636891  -1.625626520   0.555711507

05.007_OH-Oa__methanol--nitrite_105.wfx

