%nprocs=4
%mem=2GB
#p hf aug-cc-pvdz output=wfx scf=(conver=6) int=(grid=ultrafine)

title

0 1
  O   -0.416065911   1.263364664  -3.837673656
  H   -0.387869382   1.170602736  -2.851271626
  C    0.416057207   0.261513143  -4.373417995
  H    0.006342764  -0.072122424  -5.333316212
  H    1.435549952   0.632295940  -4.562665090
  H    0.489646125  -0.596890578  -3.701451459

05.005_OH-Oa__methanol--benzoate_1.wfx

