%nprocs=4
%mem=2GB
#p b3lyp 6-31+G* output=wfx scf=(conver=6) int=(grid=ultrafine)

title

-1 1
  O   -0.078719960  -0.924127744  -0.811003191
  H    0.031689558  -0.043993800  -0.081842430
  H   -0.295773036  -1.654797588  -0.228477884
  O    0.117543006   0.744812462   0.612648588
  H   -0.714168930   1.217721513   0.529209933

05.012_water--hydroxide_080.wfx


