%nprocs=4
%mem=2GB
#p b3lyp 6-31+G* output=wfx scf=(conver=6) int=(grid=ultrafine)

title

-1 1
  N   -2.481705223   0.850745382   1.192190285
  O   -2.441394621  -0.075354120   0.316035599
  O   -3.570782943   1.371654864   1.470608479
  O   -1.423443515   1.213117310   1.747137982

05.010_phenol--nitrate_2.wfx


