%nprocs=4
%mem=2GB
#p b3lyp 6-31+G* output=wfx scf=(conver=6) int=(grid=ultrafine)

title

-1 1
  O    0.351210993  -1.582065061  -1.194083658
  C   -0.005211365  -1.117054627  -0.085692359
  O   -0.368194994  -1.742723280   0.938282411
  C    0.003695815   0.414963820   0.032676753
  C   -0.374291074   1.037982491   1.220267335
  C   -0.368079588   2.423601605   1.330305631
  C    0.018614866   3.208209608   0.248011352
  C    0.397987464   2.594690601  -0.942019089
  C    0.389434017   1.208588613  -1.045640582
  H   -0.669823463   0.404803622   2.044345106
  H   -0.664563509   2.894786830   2.259256566
  H    0.024230790   4.287600059   0.331179766
  H    0.700111893   3.199520964  -1.788051757
  H    0.678784838   0.706089098  -1.957303519

05.015_water--benzoate_2.wfx


