%nprocs=4
%mem=2GB
#p hf aug-cc-pvdz output=wfx scf=(conver=6) int=(grid=ultrafine)

title

-1 0
  O   -0.385191390   1.504934957  -1.024064016
  H   -0.119859355   1.038602603  -0.187587752
  C   -0.249540071   0.590796658  -2.083573853
  H   -1.034857186   0.775465031  -2.825662383
  H    0.718746649   0.697341510  -2.597885212
  H   -0.331751805  -0.439617437  -1.728846555
  N    0.467804372  -1.107905814   1.824207684
  O    0.527640952   0.146574710   1.666664757
  O    0.055963158  -1.768350982   0.852391909

05.007_OH-Oa__methanol--nitrite_125.wfx

