%nprocs=4
%mem=2GB
#p hf aug-cc-pvdz output=wfx scf=(conver=6) int=(grid=ultrafine)

title

-1 0
  O   -1.491537052   1.456932722  -1.005297628
  H   -1.152166816   0.809683119  -0.344795821
  C   -0.770448190   1.264818571  -2.198308915
  H   -0.928405570   2.136399682  -2.839956168
  H    0.299665214   1.148821814  -2.010776683
  H   -1.110358605   0.377151783  -2.751892538
  N    0.515805147  -0.512345758   0.642278283
  O   -0.722683928  -0.232144295   0.635536482
  O    1.276815185   0.040045975  -0.181935206
  O    0.952303398  -1.334474022   1.468960735

05.006_OH-Oa__methanol--nitrate_085.wfx

