%nprocs=4
%mem=2GB
#p b3lyp 6-31+G* output=wfx scf=(conver=6) int=(grid=ultrafine)

title

-1 1
  C   -0.331988513  -0.042671541  -2.668716895
  C   -0.112786644   0.151183458  -1.150358556
  O   -0.420965265  -0.850720835  -0.444080391
  O    0.335151041   1.248307138  -0.767981294
  H   -1.386360416  -0.251257953  -2.859764012
  H    0.233919669  -0.910222328  -3.012793884
  H   -0.027740964   0.840013371  -3.228963067

05.004_methanol--acetate_2.wfx


