%nprocs=4
%mem=2GB
#p hf aug-cc-pvdz output=wfx scf=(conver=6) int=(grid=ultrafine)

title

-1 0
  O    0.181818524  -2.064298258  -1.296939607
  H    0.261754568  -1.094953727  -1.068107513
  H   -0.228779188  -2.417819200  -0.505331155
  N   -0.212134575   0.473113595   0.689616665
  O    0.308653451   0.574850222  -0.465477996
  O   -0.300410456   1.525229241   1.340335928

05.014_OH-Oa__water--nitrite_105.wfx

