%nprocs=4
%mem=2GB
#p hf aug-cc-pvdz output=wfx scf=(conver=6) int=(grid=ultrafine)

title

-1 0
  O    0.181818524  -2.064298258  -1.296939607
  H    0.261754568  -1.094953727  -1.068107513
  H   -0.228779188  -2.417819200  -0.505331155
  N   -0.216601135   0.314084647   0.632223377
  O    0.304186891   0.415821274  -0.522871284
  O   -0.304877016   1.366200293   1.282942640

05.014_OH-Oa__water--nitrite_095.wfx

