%nprocs=4
%mem=2GB
#p b3lyp 6-31+G* output=wfx scf=(conver=6) int=(grid=ultrafine)

title

-1 1
  O    0.181818524  -2.064298258  -1.296939607
  H    0.261754568  -1.094953727  -1.068107513
  H   -0.228779188  -2.417819200  -0.505331155
  N   -0.209901295   0.552628068   0.718313308
  O    0.310886731   0.654364696  -0.436781353
  O   -0.298177176   1.604743714   1.369032571

05.014_water--nitrite_110.wfx


