%nprocs=4
%mem=2GB
#p b3lyp 6-31+G* output=wfx scf=(conver=6) int=(grid=ultrafine)

title

-1 1
  O   -0.200102966  -1.998204668  -1.994996425
  H   -0.150044238  -1.339152027  -1.263629579
  H   -0.541292159  -2.775745672  -1.549597553
  N    0.072390804   0.557329853   0.479360640
  O   -0.269278927  -0.652165329   0.297307438
  O    0.490611657   1.230531964  -0.484350828
  O   -0.016724738   1.051062081   1.621245016

05.013_water--nitrate_095.wfx


