%nprocs=4
%mem=2GB
#p b3lyp 6-31+G* output=wfx scf=(conver=6) int=(grid=ultrafine)

title

-1 1
  C    1.679574128  -0.613252546   0.109456748
  O    1.327259608  -1.760631173  -0.118639392
  O    0.910305853   0.404262146   0.352656665
  H   -0.218000493   0.224566725   0.334040838
  C    3.160116697  -0.238954891   0.130527709
  H    3.775253095  -1.117398980  -0.045611212
  H    3.358572787   0.510557873  -0.636202022
  H    3.415730668   0.207839716   1.091596181
  N   -2.083271957   0.956409390  -0.459909171
  O   -1.577929225   0.149578110   0.415511764
  O   -3.303908635   1.009564605  -0.462649825

05.003_aceticacid--nitrite_105.wfx


