%nprocs=4
%mem=2GB
#p hf aug-cc-pvdz output=wfx scf=(conver=6) int=(grid=ultrafine)

title

0 1
  H    2.333653126  -2.565918042  -0.107845473
  H    3.470324416   0.601506915  -2.780881747
  H    3.910590644  -1.623732882  -1.768224522
  H   -0.135509354   0.912917157  -0.447222096
  H   -0.630812479  -0.882042424   0.964191667
  H    1.435626373   1.853843841  -2.102751606
  C    2.785519591   0.184142296  -2.054979409
  C    3.028529886  -1.062035844  -1.485389205
  C    2.150602176  -1.597796283  -0.554348211
  C    0.999016289  -0.894311555  -0.167387699
  C    0.752295800   0.364138959  -0.741677660
  C    1.642243486   0.882426270  -1.670739148
  O    0.188728597  -1.453648195   0.730351796

05.008_OH-Oa__phenol--acetate_1.wfx

