%nprocs=4
%mem=2GB
#p hf aug-cc-pvdz output=wfx scf=(conver=6) int=(grid=ultrafine)

title

-1 0
  O   -0.200102966  -1.998204668  -1.994996425
  H   -0.150044238  -1.339152027  -1.263629579
  H   -0.541292159  -2.775745672  -1.549597553
  N    0.034737744   0.774273021   0.972288119
  O   -0.306931987  -0.435222161   0.790234917
  O    0.452958597   1.447475132   0.008576651
  O   -0.054377798   1.268005249   2.114172495

05.013_OH-Oa__water--nitrate_125.wfx

