%nprocs=4
%mem=2GB
#p b3lyp 6-31+G* output=wfx scf=(conver=6) int=(grid=ultrafine)

title

-1 1
  O   -0.385191390   1.504934957  -1.024064016
  H   -0.119859355   1.038602603  -0.187587752
  C   -0.249540071   0.590796658  -2.083573853
  H   -1.034857186   0.775465031  -2.825662383
  H    0.718746649   0.697341510  -2.597885212
  H   -0.331751805  -0.439617437  -1.728846555
  N    0.312404299  -0.893819119   1.379187082
  O    0.372240879   0.360661405   1.221644155
  O   -0.099436915  -1.554264288   0.407371307

05.007_methanol--nitrite_095.wfx


