%nprocs=4
%mem=2GB
#p b3lyp 6-31+G* output=wfx scf=(conver=6) int=(grid=ultrafine)

title

-1 1
  O   -1.491537052   1.456932722  -1.005297628
  H   -1.152166816   0.809683119  -0.344795821
  C   -0.770448190   1.264818571  -2.198308915
  H   -0.928405570   2.136399682  -2.839956168
  H    0.299665214   1.148821814  -2.010776683
  H   -1.110358605   0.377151783  -2.751892538
  N    1.096870231  -1.921876966   1.968610222
  O   -0.141618844  -1.641675503   1.961868421
  O    1.857880269  -1.369485233   1.144396733
  O    1.533368482  -2.744005230   2.795292674

05.006_methanol--nitrate_200.wfx


