%nprocs=4
%mem=2GB
#p b3lyp 6-31+G* output=wfx scf=(conver=6) int=(grid=ultrafine)

title

-1 1
  O   -0.204298186  -0.737785523   2.213977699
  H   -0.297980176  -0.785684740   1.223370934
  C    0.712295334   0.292530547   2.494426147
  H    1.722757814  -0.100618557   2.690881627
  H    0.780442301   0.999498096   1.663753855
  H    0.393939328   0.832336685   3.394752649
  C   -0.393481058  -0.075189588  -3.502442558
  C   -0.174279188   0.118665410  -1.984084218
  O   -0.482457810  -0.883238882  -1.277806054
  O    0.273658496   1.215789090  -1.601706956
  H   -1.447852960  -0.283776000  -3.693489674
  H    0.172427124  -0.942740376  -3.846519546
  H   -0.089233508   0.807495324  -4.062688730

05.004_methanol--acetate_150.wfx


