%nprocs=4
%mem=2GB
#p b3lyp 6-31+G* output=wfx scf=(conver=6) int=(grid=ultrafine)

title

-1 1
  O   -0.191375339  -1.365037704  -1.407361054
  H   -0.103609683  -0.590928264  -0.786452397
  H   -0.135943946  -2.113683698  -0.810934482
  C    0.158000532   1.077814399   1.170333436
  N    0.035745075   0.379644767   0.242099021

06.003_water--cyanide_080.wfx


