%nprocs=4
%mem=2GB
#p hf aug-cc-pvdz output=wfx scf=(conver=6) int=(grid=ultrafine)

title

-1 0
  O    0.220311970  -1.715180308  -1.182816955
  H    0.127239907  -0.834508093  -0.716063691
  H    0.137658852  -2.338231956  -0.458174070
  C   -0.064555764   0.618140847   0.324047726
  N   -0.196648630   1.515807804   1.056227445

07.002_OH-Ca__water--cyanide_095.wfx

