%nprocs=4
%mem=2GB
#p b3lyp 6-31+G* output=wfx scf=(conver=6) int=(grid=ultrafine)

title

-1 1
  O    0.220311970  -1.715180308  -1.182816955
  H    0.127239907  -0.834508093  -0.716063691
  H    0.137658852  -2.338231956  -0.458174070
  C   -0.125122818   1.076872091   0.652503963
  N   -0.257215684   1.974539048   1.384683682

07.002_water--cyanide_125.wfx


