%nprocs=4
%mem=2GB
#p b3lyp 6-31+G* output=wfx scf=(conver=6) int=(grid=ultrafine)

title

-1 1
  N   -1.310918316   3.185548960   0.254764294
  H   -0.969764711   2.646200090  -0.552684681
  H   -0.918223695   2.557446092   0.968522390
  H   -2.306494690   2.974871234   0.276112173
  C    0.503102257  -0.808058071  -0.070851432
  O    0.313576327  -0.176552428  -1.151877702
  O    0.402018970  -0.324420745   1.094737067
  C    0.890283540  -2.318941930  -0.185692437
  O    2.120503297  -2.584722523  -0.253236250
  O   -0.064102748  -3.142884224  -0.200768419

08.002_ammonia--oxalate_150.wfx


