%nprocs=4
%mem=2GB
#p hf aug-cc-pvdz output=wfx scf=(conver=6) int=(grid=ultrafine)

title

-1 0
  H    1.522103724   0.965415335   1.673467140
  H    1.373392111   1.456151161  -0.022743118
  H    2.085283590  -0.113160783   0.382507302
  H   -0.079615452  -0.582150378  -0.353430462
  H   -2.012319786   0.316365905   0.598123232
  H   -1.107379052   1.240920607   1.811944898
  H   -1.037278444   1.708899642   0.104270647
  C    1.296726124   0.586839770   0.663516641
  N    0.023776053  -0.079751707   0.610135817
  C   -1.071234704   0.835039313   0.788192247
  O   -0.203471781  -1.117842353  -1.638863679
  H   -0.298010601  -2.069276600  -1.537296732

08.011_NH-Oa__dimethylamine--hydroxide_090.wfx

