%nprocs=4
%mem=2GB
#p hf aug-cc-pvdz output=wfx scf=(conver=6) int=(grid=ultrafine)

title

-1 1
  O   -0.874878938   0.933772766   1.038965588
  C    0.161356854   0.509998905   0.470194623
  O    1.297129431   1.027361189   0.436804080
  C    0.003315596  -0.823958132  -0.285040116
  C    1.084447042  -1.389928871  -0.957674612
  C    0.948515361  -2.592680758  -1.641266845
  C   -0.278294484  -3.249606370  -1.661138735
  C   -1.364047586  -2.692372684  -0.992296567
  C   -1.220912553  -1.489062691  -0.310834038
  H    2.024415794  -0.857716093  -0.924991456
  H    1.797631835  -3.020823441  -2.159864013
  H   -0.387119810  -4.186510813  -2.192728462
  H   -2.321673611  -3.198362004  -1.003848258
  H   -2.046717537  -1.033536414   0.216542024

08.013_NH-Oa__methylamine--benzoate_2.wfx

