%nprocs=4
%mem=2GB
#p hf aug-cc-pvdz output=wfx scf=(conver=6) int=(grid=ultrafine)

title

0 1
  N   -0.058290244   3.597724931   2.154499814
  H   -0.464543153   2.688619784   1.912354285
  H    0.849708328   3.346589145   2.529495935
  C    0.164431441   4.305395953   0.892250400
  H    0.694327687   5.245436452   1.072085274
  H    0.729740247   3.719328236   0.158828274
  H   -0.799722896   4.559344029   0.446937969

08.013_NH-Oa__methylamine--benzoate_1.wfx

