%nprocs=4
%mem=2GB
#p hf aug-cc-pvdz output=wfx scf=(conver=6) int=(grid=ultrafine)

title

0 1
  N   -1.310918316   3.185548960   0.254764294
  H   -0.969764711   2.646200090  -0.552684681
  H   -0.918223695   2.557446092   0.968522390
  H   -2.306494690   2.974871234   0.276112173

08.002_NH-Oa__ammonia--oxalate_1.wfx

