%nprocs=4
%mem=2GB
#p b3lyp 6-31+G* output=wfx scf=(conver=6) int=(grid=ultrafine)

title

-1 1
  N   -1.150609447   0.944288167   1.181864463
  H   -1.061002325   0.466633337   0.278147174
  H   -0.959270359   0.195618599   1.838689627
  C   -0.045648494   1.898927511   1.259905897
  H   -0.013354822   2.367082043   2.248215652
  H    0.936776837   1.454342755   1.056435756
  H   -0.203178602   2.695428743   0.530007492
  N    0.767814063  -1.157464023  -1.308935039
  O   -0.210475179  -0.410105497  -1.581104914
  O    0.884095357  -1.509447844  -0.113897138

08.015_methylamine--nitrite_110.wfx


