%nprocs=4
%mem=2GB
#p b3lyp 6-31+G* output=wfx scf=(conver=6) int=(grid=ultrafine)

title

-1 1
  N   -1.150609447   0.944288167   1.181864463
  H   -1.061002325   0.466633337   0.278147174
  H   -0.959270359   0.195618599   1.838689627
  C   -0.045648494   1.898927511   1.259905897
  H   -0.013354822   2.367082043   2.248215652
  H    0.936776837   1.454342755   1.056435756
  H   -0.203178602   2.695428743   0.530007492
  N    0.729153738  -1.117612258  -1.224423581
  O   -0.249135504  -0.370253732  -1.496593456
  O    0.845435032  -1.469596079  -0.029385680

08.015_methylamine--nitrite_105.wfx


