%nprocs=4
%mem=2GB
#p hf aug-cc-pvdz output=wfx scf=(conver=6) int=(grid=ultrafine)

title

-1 0
  H   -1.120795091  -0.374550344   1.532828578
  H    0.093921493  -1.850146516   3.498516290
  H    2.613937650  -2.324395522   2.587993638
  H    2.753821875  -1.116358961   0.157205514
  N    0.739736946  -0.571364763   0.564864947
  C   -0.125907820  -0.779096767   1.592351951
  C    0.517690796  -1.524195920   2.563038967
  C    1.834848578  -1.772559995   2.088074335
  C    1.931562536  -1.166522302   0.849409007
  H    0.499083290  -0.030246327  -0.304008844
  C   -1.490403883   1.925641208  -2.633018249
  C   -1.026052525   1.114723072  -1.404982092
  O    0.168931317   0.697132093  -1.465768862
  O   -1.838419984   0.939681708  -0.479401146
  H   -1.402774471   1.310675390  -3.530430923
  H   -0.836080171   2.788298759  -2.769995695
  H   -2.519627123   2.260820704  -2.518378872

08.003_NH-Oa__1Hpyrrole--acetate_085.wfx

