%nprocs=4
%mem=2GB
#p b3lyp 6-31+G* output=wfx scf=(conver=6) int=(grid=ultrafine)

title

-1 1
  N   -0.058290244   3.597724931   2.154499814
  H   -0.464543153   2.688619784   1.912354285
  H    0.849708328   3.346589145   2.529495935
  C    0.164431441   4.305395953   0.892250400
  H    0.694327687   5.245436452   1.072085274
  H    0.729740247   3.719328236   0.158828274
  H   -0.799722896   4.559344029   0.446937969
  O   -0.813328570   1.196999819   1.169973893
  C    0.222907222   0.773225958   0.601202928
  O    1.358679799   1.290588242   0.567812385
  C    0.064865964  -0.560731079  -0.154031811
  C    1.145997410  -1.126701818  -0.826666307
  C    1.010065729  -2.329453705  -1.510258540
  C   -0.216744116  -2.986379317  -1.530130430
  C   -1.302497218  -2.429145631  -0.861288262
  C   -1.159362185  -1.225835638  -0.179825733
  H    2.085966162  -0.594489040  -0.793983151
  H    1.859182203  -2.757596388  -2.028855708
  H   -0.325569442  -3.923283760  -2.061720157
  H   -2.260123243  -2.935134951  -0.872839953
  H   -1.985167169  -0.770309361   0.347550329

08.013_methylamine--benzoate_085.wfx


