%nprocs=4
%mem=2GB
#p b3lyp 6-31+G* output=wfx scf=(conver=6) int=(grid=ultrafine)

title

-1 1
  N   -1.310918316   3.185548960   0.254764294
  H   -0.969764711   2.646200090  -0.552684681
  H   -0.918223695   2.557446092   0.968522390
  H   -2.306494690   2.974871234   0.276112173
  C   -0.109130004   0.533382193   0.040369345
  O   -0.298655934   1.164887836  -1.040656925
  O   -0.210213291   1.017019519   1.205957844
  C    0.278051279  -0.977501666  -0.074471660
  O    1.508271036  -1.243282259  -0.142015473
  O   -0.676335009  -1.801443960  -0.089547642

08.002_ammonia--oxalate_080.wfx


