%nprocs=4
%mem=2GB
#p hf aug-cc-pvdz output=wfx scf=(conver=6) int=(grid=ultrafine)

title

-2 1
  C    0.065793499   0.150113546   0.008591980
  O   -0.123732431   0.781619189  -1.072434290
  O   -0.035289788   0.633750872   1.174180479
  C    0.452974782  -1.360770313  -0.106249025
  O    1.683194539  -1.626550906  -0.173792838
  O   -0.501411506  -2.184712607  -0.121325007

08.002_NH-Oa__ammonia--oxalate_2.wfx

