%nprocs=4
%mem=2GB
#p b3lyp 6-31+G* output=wfx scf=(conver=6) int=(grid=ultrafine)

title

0 1
  N   -0.854266185   0.803187264   2.119850253
  H   -0.991210480   0.258249543   1.265754170
  H   -0.095399362   0.320624167   2.587178661
  C   -0.368012927   2.121626769   1.710757164
  H   -0.109185501   2.718933757   2.589571578
  H    0.501790035   2.081653041   1.045350921
  H   -1.164536295   2.650744310   1.184322100

08.014_methylamine--nitrate_1.wfx


