%nprocs=4
%mem=2GB
#p b3lyp 6-31+G* output=wfx scf=(conver=6) int=(grid=ultrafine)

title

-1 1
  N   -0.957764232   2.208081912  -0.971789512
  H   -0.097926385   1.761728985  -0.541948365
  H   -1.422256081   2.619610307  -0.162614312
  H   -1.438359052   1.305126400  -1.073983644
  C    0.119419655  -0.435841844   0.143109796
  O    0.765376419   0.710322156   0.115534158
  O   -1.037522188  -0.531667272  -0.449137543
  O    0.636122126  -1.447250750   0.753948039

08.001_ammonia--carbonate_085.wfx


