%nprocs=4
%mem=2GB
#p hf aug-cc-pvdz output=wfx scf=(conver=6) int=(grid=ultrafine)

title

-1 1
  C   -0.168656404  -1.877297200  -2.379191662
  C   -0.077422311  -0.887101505  -1.189952982
  O   -0.182082341  -1.414589827  -0.050965861
  O    0.088040927   0.319970760  -1.465065981
  H    0.613099556  -2.633562933  -2.284662127
  H   -0.067177066  -1.364016160  -3.334518018
  H   -1.126408120  -2.400380850  -2.344684651

08.010_NH-Oa__dimethylamine--acetate_2.wfx

