%nprocs=4
%mem=2GB
#p b3lyp 6-31+G* output=wfx scf=(conver=6) int=(grid=ultrafine)

title

-1 1
  N   -1.142582202   1.718184738  -0.695531665
  H   -0.587124063   0.870839461  -0.504389511
  H   -0.642731891   2.471805508  -0.236024105
  H   -1.998530171   1.599216958  -0.164361672
  C    0.841393580  -1.260902599   0.567372026
  N    0.260430742  -0.402287681   0.027509615

09.002_ammonia--cyanide_080.wfx


