%nprocs=4
%mem=2GB
#p b3lyp 6-31+G* output=wfx scf=(conver=6) int=(grid=ultrafine)

title

0 1
  N   -1.142582202   1.718184738  -0.695531665
  H   -0.587124063   0.870839461  -0.504389511
  H   -0.642731891   2.471805508  -0.236024105
  H   -1.998530171   1.599216958  -0.164361672

09.002_ammonia--cyanide_1.wfx


