%nprocs=4
%mem=2GB
#p b3lyp 6-31+G* output=wfx scf=(conver=6) int=(grid=ultrafine)

title

-1 1
  N   -1.142582202   1.718184738  -0.695531665
  H   -0.587124063   0.870839461  -0.504389511
  H   -0.642731891   2.471805508  -0.236024105
  H   -1.998530171   1.599216958  -0.164361672
  C    2.112725787  -3.170593313   1.365220714
  N    1.531762949  -2.311978395   0.825358303

09.002_ammonia--cyanide_200.wfx


