%nprocs=4
%mem=2GB
#p hf aug-cc-pvdz output=wfx scf=(conver=6) int=(grid=ultrafine)

title

-1 0
  N   -1.142582202   1.718184738  -0.695531665
  H   -0.587124063   0.870839461  -0.504389511
  H   -0.642731891   2.471805508  -0.236024105
  H   -1.998530171   1.599216958  -0.164361672
  C    1.318143158  -1.977036617   0.866565284
  N    0.737180320  -1.118421699   0.326702873

09.002_NH-Na__ammonia--cyanide_125.wfx

