%nprocs=4
%mem=2GB
#p b3lyp 6-31+G* output=wfx scf=(conver=6) int=(grid=ultrafine)

title

-1 1
  N   -0.828252957   1.807914375  -1.205489677
  H   -0.418648109   0.952789009  -0.796174458
  H   -0.371406840   2.575128170  -0.723670851
  H   -1.789697494   1.820208123  -0.881549666
  C    0.270448734  -0.558598287   0.240522506
  N    0.639979632  -1.402292647   0.958305342

10.001_ammonia--cyanide_090.wfx


