%nprocs=4
%mem=2GB
#p b3lyp 6-31+G* output=wfx scf=(conver=6) int=(grid=ultrafine)

title

-1 1
  N   -0.782251638   0.656304154   1.377436975
  H   -0.640506002   0.028601406   0.572482250
  H   -0.426895253   0.142299072   2.175328612
  C    0.041450258   1.842435833   1.166930698
  H   -0.028552253   2.516165370   2.026069825
  H    1.104652490   1.635124107   0.981997756
  H   -0.331198235   2.384987954   0.296993596
  C    0.178083507  -1.176042956  -1.149267812
  N    0.689716902  -1.816622031  -1.980456939

10.004_methylamine--cyanide_105.wfx


