%nprocs=4
%mem=2GB
#p hf aug-cc-pvdz output=wfx scf=(conver=6) int=(grid=ultrafine)

title

-1 1
  N   -1.283355997   0.114112445   0.070608761
  O   -0.484380846  -0.042716693  -0.899350404
  O   -0.829942191   0.183921351   1.235305799
  O   -2.509381591   0.196972069  -0.145205942

11.008_CH-Oa__ethyne--nitrate_2.wfx

