%nprocs=4
%mem=2GB
#p hf aug-cc-pvdz output=wfx scf=(conver=6) int=(grid=ultrafine)

title

-1 0
  C    2.404434686  -0.241718552  -0.787254506
  H    1.400441098  -0.263697926  -0.335343938
  C    3.502584637  -0.222335486  -1.276842492
  H    4.468537031  -0.199812289  -1.712989638
  C   -2.083023707  -0.227444401   1.123497970
  C   -0.910378950   0.189865425   0.198862640
  O    0.159869237  -0.453485021   0.386975215
  O   -1.126019384   1.098747713  -0.624065743
  H   -1.790199868  -0.094101219   2.166888534
  H   -2.297745006  -1.288883448   0.984191309
  H   -2.979008764   0.356817092   0.917911445

11.007_CH-Oa__ethyne--acetate_080.wfx

