%nprocs=4
%mem=2GB
#p b3lyp 6-31+G* output=wfx scf=(conver=6) int=(grid=ultrafine)

title

-1 1
  C   -0.026305199  -3.241003982  -0.002659873
  H   -0.262138563  -2.174306966  -0.000193835
  H    0.558468491  -3.488132147   0.883298315
  H    0.557816771  -3.484009884  -0.890173006
  H   -0.943672309  -3.831562965  -0.003704809
  C   -0.210148834   1.955988621  -0.000721992
  C    0.143919899   0.439642476   0.000375199
  O   -0.845475511  -0.333371864   0.002486413
  O    1.360077564   0.148536156  -0.001093846
  H   -0.816338331   2.187516389  -0.879376937
  H    0.684919058   2.577856458  -0.001195761
  H   -0.816605951   2.188975176   0.877349146

11.009_methane--acetate_085.wfx


