%nprocs=4
%mem=2GB
#p b3lyp 6-31+G* output=wfx scf=(conver=6) int=(grid=ultrafine)

title

-1 1
  H   -0.616913525   1.960557820  -0.354568490
  H   -0.991047728   3.263628929  -1.646266499
  H   -0.367718513   1.625863212  -3.390821524
  H   -0.016705554   0.383351094  -2.034194078
  C   -0.667906519   2.257008926  -1.398052674
  C   -0.333411387   1.378075539  -2.334044992
  C    0.411189817  -1.624103490   1.647217786
  C    0.157340397  -0.539426703   0.562577194
  O   -0.224642578   0.579355748   0.978873274
  O    0.343656921  -0.910719480  -0.620476405
  H    0.504964990  -1.181877536   2.638933718
  H    1.304571727  -2.201745988   1.405629071
  H   -0.433749764  -2.317548065   1.653598078

11.015_ethene--acetate_085.wfx


