%nprocs=4
%mem=2GB
#p hf aug-cc-pvdz output=wfx scf=(conver=6) int=(grid=ultrafine)

title

-2 0
  H    0.073086240   2.688425198  -0.230134685
  H    0.051300070   4.354310532  -1.128605344
  H   -0.180202278   3.097572590  -3.258056406
  H   -0.145621160   1.503221082  -2.238593849
  C    0.011215063   3.266229711  -1.155668272
  C   -0.112636863   2.594089320  -2.294627511
  C    0.037131976  -2.123973546   1.250668843
  O    0.136649265  -1.056488353   1.922761802
  O   -0.079381238  -2.196611990  -0.007193861
  C    0.060165374  -3.471197388   2.044057743
  O   -1.053565215  -3.917144840   2.433629613
  O    1.190576698  -3.999643471   2.228340975

11.002_CH-Oa__ethene--oxalate_200.wfx

