%nprocs=4
%mem=2GB
#p b3lyp 6-31+G* output=wfx scf=(conver=6) int=(grid=ultrafine)

title

-1 1
  C    2.446498286  -0.224421247  -0.209153866
  H    1.368494895  -0.144528884  -0.323115553
  C    3.638847919  -0.314358267  -0.100712471
  H    4.690695339  -0.392944095   0.004245848
  N   -1.005424636   0.098840616   0.157043989
  O   -0.206449485  -0.057988522  -0.812915176
  O   -0.552010830   0.168649522   1.321741027
  O   -2.231450230   0.181700240  -0.058770714

11.008_ethyne--nitrate_085.wfx


