%nprocs=4
%mem=2GB
#p hf aug-cc-pvdz output=wfx scf=(conver=6) int=(grid=ultrafine)

title

-2 0
  C    3.220818853   0.169374430  -0.230600282
  H    2.079744481   0.096059110  -0.033424881
  C    4.409974132   0.246069241  -0.439014871
  H    5.450434023   0.314702298  -0.633869902
  C   -0.377596937   0.018355739  -0.293541669
  O    0.665515234  -0.023255366   0.450102606
  O   -0.369747896   0.165662733  -1.535164058
  C   -1.749727576  -0.128835624   0.434588268
  O   -2.294569494   0.937943634   0.824308991
  O   -2.195163574  -1.300486869   0.559369933

11.001_CH-Oa__ethyne--oxalate_095.wfx

