%nprocs=4
%mem=2GB
#p hf aug-cc-pvdz output=wfx scf=(conver=6) int=(grid=ultrafine)

title

0 1
  C   -2.445498456  -0.715302257  -1.484848942
  H   -1.893923835   0.173736596  -1.199140892
  C   -1.934845889  -1.947798743  -1.084760264
  H   -1.014954905  -1.947732398  -0.510378638
  C   -2.605135118  -3.117626004  -1.426163947
  H   -2.209391386  -4.076454857  -1.115851962
  C   -3.783956809  -3.063744173  -2.165790724
  H   -4.303179154  -3.976443921  -2.429834967
  C   -4.293822715  -1.833227695  -2.565269955
  H   -5.210065321  -1.787755676  -3.140392958
  C   -3.622751462  -0.661728990  -2.223460688
  H   -4.020986438   0.295589698  -2.535234820

11.014_CH-Oa__benzene--benzoate_1.wfx

