%nprocs=4
%mem=2GB
#p b3lyp 6-31+G* output=wfx scf=(conver=6) int=(grid=ultrafine)

title

-1 1
  C    3.157800247   2.910328320   0.309346970
  C    2.015786750   1.860462907   0.262427408
  O    2.359794280   0.661959161   0.395680989
  O    0.865090135   2.322112507   0.071912587
  H    4.051425915   2.503911807   0.782236066
  H    2.829130735   3.809943611   0.830836527
  H    3.409071624   3.198313949  -0.714637671

11.013_benzene--acetate_2.wfx


