%nprocs=4
%mem=2GB
#p b3lyp 6-31+G* output=wfx scf=(conver=6) int=(grid=ultrafine)

title

-1 1
  C   -2.114273443   1.600957237  -1.811270243
  H   -1.457472176   1.139980209  -1.074599696
  H   -1.519338971   2.158371818  -2.534114136
  H   -2.810631457   2.280033769  -1.319000042
  H   -2.675957110   0.828005534  -2.334903039
  N    0.664590281  -0.488956899   0.667066457
  O   -0.182732795   0.333578898   1.102663736
  O    0.741483339  -0.710969612  -0.566715178
  O    1.428011138  -1.083410250   1.463633622

11.011_methane--nitrate_110.wfx


