%nprocs=4
%mem=2GB
#p b3lyp 6-31+G* output=wfx scf=(conver=6) int=(grid=ultrafine)

title

-1 1
  C   -0.922576823   0.953412081  -0.844672562
  H   -0.257200971   0.266960049  -0.262926867
  H   -0.328555728   1.652074726  -1.439693454
  H   -1.554584066   1.529699132  -0.163218657
  H   -1.568962302   0.384024225  -1.517746840
  O    0.941153701  -0.968236444   0.792150762
  H    0.720194706  -0.810574653   1.716565351

11.010_methane--hydroxide_105.wfx


