%nprocs=4
%mem=2GB
#p b3lyp 6-31+G* output=wfx scf=(conver=6) int=(grid=ultrafine)

title

-1 1
  H    0.047341790   0.809082792  -0.752652171
  H   -0.372177546   2.565575244  -0.350222577
  H    0.094597218   3.251834116  -2.661773242
  H    0.517400839   1.510107730  -3.087350256
  C   -0.052394521   1.840482452  -1.090013179
  C    0.197109173   2.222306924  -2.336241858
  N   -0.106207354  -1.294450312   1.328367109
  O    0.251664599  -1.656706677   0.174245974
  O   -0.167842701  -2.188841912   2.198108059

11.006_ethene--nitrite_125.wfx


