%nprocs=4
%mem=2GB
#p b3lyp 6-31+G* output=wfx scf=(conver=6) int=(grid=ultrafine)

title

-1 1
  C   -2.114273443   1.600957237  -1.811270243
  H   -1.457472176   1.139980209  -1.074599696
  H   -1.519338971   2.158371818  -2.534114136
  H   -2.810631457   2.280033769  -1.319000042
  H   -2.675957110   0.828005534  -2.334903039
  N    0.316934086  -0.269029269   0.073267339
  O   -0.530388990   0.553506528   0.508864618
  O    0.393827144  -0.491041982  -1.160514296
  O    1.080354943  -0.863482620   0.869834504

11.011_methane--nitrate_080.wfx


