%nprocs=4
%mem=2GB
#p b3lyp 6-31+G* output=wfx scf=(conver=6) int=(grid=ultrafine)

title

-1 1
  H   -0.616913525   1.960557820  -0.354568490
  H   -0.991047728   3.263628929  -1.646266499
  H   -0.367718513   1.625863212  -3.390821524
  H   -0.016705554   0.383351094  -2.034194078
  C   -0.667906519   2.257008926  -1.398052674
  C   -0.333411387   1.378075539  -2.334044992
  C    0.499559750  -1.938218779   1.969773613
  C    0.245710330  -0.853541992   0.885133021
  O   -0.136272645   0.265240459   1.301429101
  O    0.432026854  -1.224834769  -0.297920578
  H    0.593334923  -1.495992825   2.961489545
  H    1.392941660  -2.515861277   1.728184898
  H   -0.345379831  -2.631663354   1.976153905

11.015_ethene--acetate_105.wfx


