%nprocs=4
%mem=2GB
#p b3lyp 6-31+G* output=wfx scf=(conver=6) int=(grid=ultrafine)

title

-1 1
  C    2.446498286  -0.224421247  -0.209153866
  H    1.368494895  -0.144528884  -0.323115553
  C    3.638847919  -0.314358267  -0.100712471
  H    4.690695339  -0.392944095   0.004245848
  N   -0.912780849   0.093750007   0.185855731
  O   -0.113805698  -0.063079131  -0.784103434
  O   -0.459367043   0.163558913   1.350552769
  O   -2.138806443   0.176609631  -0.029958972

11.008_ethyne--nitrate_080.wfx


