%nprocs=4
%mem=2GB
#p hf aug-cc-pvdz output=wfx scf=(conver=6) int=(grid=ultrafine)

title

-1 0
  C   -0.692989737   0.163102537  -0.097061858
  H   -0.159641596   1.107726916  -0.020169545
  C    0.052919851  -1.007735710   0.004544526
  H    1.120271860  -0.902870022   0.154179578
  C   -0.574843107  -2.245012710  -0.086221998
  H    0.006677878  -3.155072026  -0.006985714
  C   -1.952170181  -2.320232197  -0.279125400
  H   -2.440442693  -3.284055917  -0.349734296
  C   -2.699916333  -1.152111305  -0.380987613
  H   -3.770916880  -1.207214399  -0.530978405
  C   -2.068194350   0.085909826  -0.289663283
  H   -2.652270713   0.994131355  -0.369216530
  N    2.692023217   2.174914842   0.383465813
  O    1.538995322   2.648547265   0.221969463
  O    2.787635260   0.923205196   0.392882018

11.004_CH-Oa__benzene--nitrite_105.wfx

