%nprocs=4
%mem=2GB
#p b3lyp 6-31+G* output=wfx scf=(conver=6) int=(grid=ultrafine)

title

-1 1
  C    0.084222055   2.695247637   0.000000000
  H   -0.092113573   1.617664288   0.000000000
  H    0.653080794   2.973788964   0.887209552
  H   -0.865901658   3.230824893   0.000000000
  H    0.653080794   2.973788964  -0.887209552
  N   -0.146859218  -1.504433998   0.000000000
  O   -1.102290156  -0.686848764   0.000000000
  O    1.007417430  -1.013943054   0.000000000

11.012_methane--nitrite_105.wfx


