%nprocs=4
%mem=2GB
#p b3lyp 6-31+G* output=wfx scf=(conver=6) int=(grid=ultrafine)

title

-1 1
  C    2.446498286  -0.224421247  -0.209153866
  H    1.368494895  -0.144528884  -0.323115553
  C    3.638847919  -0.314358267  -0.100712471
  H    4.690695339  -0.392944095   0.004245848
  N   -1.283355997   0.114112445   0.070608761
  O   -0.484380846  -0.042716693  -0.899350404
  O   -0.829942191   0.183921351   1.235305799
  O   -2.509381591   0.196972069  -0.145205942

11.008_ethyne--nitrate_100.wfx


