%nprocs=4
%mem=2GB
#p hf aug-cc-pvdz output=wfx scf=(conver=6) int=(grid=ultrafine)

title

-1 0
  C   -0.026305199  -3.241003982  -0.002659873
  H   -0.262138563  -2.174306966  -0.000193835
  H    0.558468491  -3.488132147   0.883298315
  H    0.557816771  -3.484009884  -0.890173006
  H   -0.943672309  -3.831562965  -0.003704809
  C   -0.347404586   2.389149821  -0.000091345
  C    0.006664147   0.872803676   0.001005846
  O   -0.982731263   0.099789336   0.003117060
  O    1.222821812   0.581697356  -0.000463199
  H   -0.953594083   2.620677589  -0.878746290
  H    0.547663306   3.011017658  -0.000565114
  H   -0.953861703   2.622136376   0.877979793

11.009_CH-Oa__methane--acetate_105.wfx

