%nprocs=4
%mem=2GB
#p hf aug-cc-pvdz output=wfx scf=(conver=6) int=(grid=ultrafine)

title

0 1
  C    2.404434686  -0.241718552  -0.787254506
  H    1.400441098  -0.263697926  -0.335343938
  C    3.502584637  -0.222335486  -1.276842492
  H    4.468537031  -0.199812289  -1.712989638

11.007_CH-Oa__ethyne--acetate_1.wfx

