%nprocs=4
%mem=2GB
#p b3lyp 6-31+G* output=wfx scf=(conver=6) int=(grid=ultrafine)

title

-1 1
  C   -0.026305199  -3.241003982  -0.002659873
  H   -0.262138563  -2.174306966  -0.000193835
  H    0.558468491  -3.488132147   0.883298315
  H    0.557816771  -3.484009884  -0.890173006
  H   -0.943672309  -3.831562965  -0.003704809
  C   -0.313090648   2.280859521  -0.000249007
  C    0.040978085   0.764513376   0.000848184
  O   -0.948417325  -0.008500964   0.002959398
  O    1.257135750   0.473407056  -0.000620861
  H   -0.919280145   2.512387289  -0.878903952
  H    0.581977244   2.902727358  -0.000722776
  H   -0.919547765   2.513846076   0.877822131

11.009_methane--acetate_100.wfx


