%nprocs=4
%mem=2GB
#p hf aug-cc-pvdz output=wfx scf=(conver=6) int=(grid=ultrafine)

title

0 1
  C   -2.114273443   1.600957237  -1.811270243
  H   -1.457472176   1.139980209  -1.074599696
  H   -1.519338971   2.158371818  -2.534114136
  H   -2.810631457   2.280033769  -1.319000042
  H   -2.675957110   0.828005534  -2.334903039

11.011_CH-Oa__methane--nitrate_1.wfx

