%nprocs=4
%mem=2GB
#p hf aug-cc-pvdz output=wfx scf=(conver=6) int=(grid=ultrafine)

title

-1 0
  C   -0.922576823   0.953412081  -0.844672562
  H   -0.257200971   0.266960049  -0.262926867
  H   -0.328555728   1.652074726  -1.439693454
  H   -1.554584066   1.529699132  -0.163218657
  H   -1.568962302   0.384024225  -1.517746840
  O    0.827024685  -0.850598682   0.691667178
  H    0.606065690  -0.692936891   1.616081767

11.010_CH-Oa__methane--hydroxide_095.wfx

