%nprocs=4
%mem=2GB
#p b3lyp 6-31+G* output=wfx scf=(conver=6) int=(grid=ultrafine)

title

-1 1
  H    0.002027204  -0.021501461   0.397373489
  H    0.093119714   1.859969407   0.187761670
  H    0.091226432   1.684002001  -2.252452858
  H    0.006302505  -0.150743010  -2.115377480
  C    0.048938457   0.876570562  -0.279744921
  C    0.049426579   0.808806882  -1.608707632
  O   -0.109636639  -1.995284724   2.169805607
  H   -0.251828485  -2.872329584   1.799191981

11.005_ethene--hydroxide_150.wfx


