%nprocs=4
%mem=2GB
#p b3lyp 6-31+G* output=wfx scf=(conver=6) int=(grid=ultrafine)

title

-1 1
  C   -0.000003057   0.000012044   1.483199061
  H   -0.000003057   0.000012044   0.386191553
  C    0.000009850  -0.000089019   2.685232289
  H    0.000025762  -0.000194541   3.745343555
  C   -0.000019317   0.000146642  -2.327097521
  N    0.000005245  -0.000027984  -1.158286725

12.003_ethyne--cyanide_080.wfx


