%nprocs=4
%mem=2GB
#p hf aug-cc-pvdz output=wfx scf=(conver=6) int=(grid=ultrafine)

title

-1 0
  H   -0.083081647   0.593355847  -0.063874702
  H   -0.377439430   2.417007848   0.103817729
  H   -0.203078817   2.710094585  -2.325002990
  H    0.091254071   0.900671514  -2.516522493
  C   -0.188782728   1.566410981  -0.543305230
  C   -0.096610138   1.738075948  -1.855780938
  C    0.396940133  -4.229423194   2.702923331
  N    0.317957637  -3.283196881   2.020472862

12.002_CH-Na__ethene--cyanide_200.wfx

