%nprocs=4
%mem=2GB
#p b3lyp 6-31+G* output=wfx scf=(conver=6) int=(grid=ultrafine)

title

-1 1
  C   -1.319058717   1.445986259  -1.779501340
  H   -0.774039998   0.850829593  -1.042771288
  H   -0.616043508   2.003778256  -2.398497574
  H   -1.981623665   2.147627014  -1.272324581
  H   -1.913877877   0.791735033  -2.417190808
  C    1.135543478  -1.244556380   1.535245852
  N    1.719680118  -1.886630413   2.318284224

13.001_methane--cyanide_150.wfx


