%nprocs=4
%mem=2GB
#p b3lyp 6-31+G* output=wfx scf=(conver=6) int=(grid=ultrafine)

title

-1 1
  C   -1.319058717   1.445986259  -1.779501340
  H   -0.774039998   0.850829593  -1.042771288
  H   -0.616043508   2.003778256  -2.398497574
  H   -1.981623665   2.147627014  -1.272324581
  H   -1.913877877   0.791735033  -2.417190808
  C    0.499015653  -0.546094389   0.675906805
  N    1.083152292  -1.188168422   1.458945178

13.001_methane--cyanide_100.wfx


