%nprocs=4
%mem=2GB
#p hf aug-cc-pvdz output=wfx scf=(conver=6) int=(grid=ultrafine)

title

-1 0
  C   -1.319058717   1.445986259  -1.779501340
  H   -0.774039998   0.850829593  -1.042771288
  H   -0.616043508   2.003778256  -2.398497574
  H   -1.981623665   2.147627014  -1.272324581
  H   -1.913877877   0.791735033  -2.417190808
  C    0.435362870  -0.476248190   0.589972900
  N    1.019499509  -1.118322223   1.373011273

13.001_CH-Ca__methane--cyanide_095.wfx

