15
 ch3oh_ch3sch3_cs, factor= 2.0, energy= -0.63
 S         0.691831       -1.304247        0.000000
 C        -0.486207       -1.387475        1.360941
 C        -0.486207       -1.387475       -1.360941
 H        -1.035340       -2.326136        1.332261
 H         0.080605       -1.338205        2.287319
 H        -1.175349       -0.546625        1.319382
 H        -1.035340       -2.326136       -1.332261
 H        -1.175349       -0.546625       -1.319382
 H         0.080605       -1.338205       -2.287319
 O        -0.922801        4.128185        0.000000
 C        -0.179749        5.333235        0.000000
 H        -0.893849        6.151981        0.000000
 H         0.450568        5.432786        0.886188
 H         0.450568        5.432786       -0.886188
 H        -0.289862        3.396568        0.000000
