15
 ch3oh_ch3sch3_cs, factor= 1.1, energy= -5.12
 S         0.691831       -1.304247        0.000000
 C        -0.486207       -1.387475        1.360941
 C        -0.486207       -1.387475       -1.360941
 H        -1.035340       -2.326136        1.332261
 H         0.080605       -1.338205        2.287319
 H        -1.175349       -0.546625        1.319382
 H        -1.035340       -2.326136       -1.332261
 H        -1.175349       -0.546625       -1.319382
 H         0.080605       -1.338205       -2.287319
 O        -0.481039        2.012819        0.000000
 C         0.262013        3.217868        0.000000
 H        -0.452087        4.036615        0.000000
 H         0.892330        3.317419        0.886188
 H         0.892330        3.317419       -0.886188
 H         0.151900        1.281201        0.000000
