%nprocs=4
%mem=4GB
#p pbepbe aug-cc-pvtz output=wfx scf=(conver=6) int=(grid=ultrafine)

title

0 1
S 0.691831000000000 -1.304247000000000 0.000000000000000
C -0.486207000000000 -1.387475000000000 1.360941000000000
C -0.486207000000000 -1.387475000000000 -1.360941000000000
H -1.035340000000000 -2.326136000000000 1.332261000000000
H 0.080605000000000 -1.338205000000000 2.287319000000000
H -1.175349000000000 -0.546625000000000 1.319382000000000
H -1.035340000000000 -2.326136000000000 -1.332261000000000
H -1.175349000000000 -0.546625000000000 -1.319382000000000
H 0.080605000000000 -1.338205000000000 -2.287319000000000
O -0.481039000000000 2.012819000000000 0.000000000000000
C 0.262013000000000 3.217868000000000 0.000000000000000
H -0.452087000000000 4.036615000000000 0.000000000000000
H 0.892330000000000 3.317419000000000 0.886188000000000
H 0.892330000000000 3.317419000000000 -0.886188000000000
H 0.151900000000000 1.281201000000000 0.000000000000000

ch3oh_ch3sch3_cs_110.wfx

