%nprocs=4
%mem=4GB
#p pbepbe aug-cc-pvtz output=wfx scf=(conver=6) int=(grid=ultrafine)

title

0 1
S 0.691831000000000 -1.304247000000000 0.000000000000000
C -0.486207000000000 -1.387475000000000 1.360941000000000
C -0.486207000000000 -1.387475000000000 -1.360941000000000
H -1.035340000000000 -2.326136000000000 1.332261000000000
H 0.080605000000000 -1.338205000000000 2.287319000000000
H -1.175349000000000 -0.546625000000000 1.319382000000000
H -1.035340000000000 -2.326136000000000 -1.332261000000000
H -1.175349000000000 -0.546625000000000 -1.319382000000000
H 0.080605000000000 -1.338205000000000 -2.287319000000000
O -0.431955000000000 1.777778000000000 0.000000000000000
C 0.311098000000000 2.982827000000000 0.000000000000000
H -0.403002000000000 3.801574000000000 0.000000000000000
H 0.941415000000000 3.082379000000000 0.886188000000000
H 0.941415000000000 3.082379000000000 -0.886188000000000
H 0.200985000000000 1.046161000000000 0.000000000000000

ch3oh_ch3sch3_cs_100.wfx

