 9
# Fragment[ 1 2 3 4 5 6 7 8 9] of  ch3oh_ch3sch3_cs, factor= 1.0, energy= -5.69
 S        0.691831000    -1.304247000     0.000000000
 C       -0.486207000    -1.387475000     1.360941000
 C       -0.486207000    -1.387475000    -1.360941000
 H       -1.035340000    -2.326136000     1.332261000
 H        0.080605000    -1.338205000     2.287319000
 H       -1.175349000    -0.546625000     1.319382000
 H       -1.035340000    -2.326136000    -1.332261000
 H       -1.175349000    -0.546625000    -1.319382000
 H        0.080605000    -1.338205000    -2.287319000
