%nprocs=4
%mem=4GB
#p pbepbe aug-cc-pvtz output=wfx scf=(conver=6) int=(grid=ultrafine)

title

0 1
S 0.691831000000000 -1.304247000000000 0.000000000000000
C -0.486207000000000 -1.387475000000000 1.360941000000000
C -0.486207000000000 -1.387475000000000 -1.360941000000000
H -1.035340000000000 -2.326136000000000 1.332261000000000
H 0.080605000000000 -1.338205000000000 2.287319000000000
H -1.175349000000000 -0.546625000000000 1.319382000000000
H -1.035340000000000 -2.326136000000000 -1.332261000000000
H -1.175349000000000 -0.546625000000000 -1.319382000000000
H 0.080605000000000 -1.338205000000000 -2.287319000000000
O -0.456497000000000 1.895298000000000 0.000000000000000
C 0.286556000000000 3.100348000000000 0.000000000000000
H -0.427545000000000 3.919094000000000 0.000000000000000
H 0.916873000000000 3.199899000000000 0.886188000000000
H 0.916873000000000 3.199899000000000 -0.886188000000000
H 0.176442000000000 1.163681000000000 0.000000000000000

ch3oh_ch3sch3_cs_105.wfx

