%nprocs=4
%mem=4GB
#p pbepbe aug-cc-pvtz output=wfx scf=(conver=6) int=(grid=ultrafine)

title

0 1
C -0.971654000000000 1.919425000000000 0.764279000000000
S 0.435329000000000 1.963603000000000 -0.374618000000000
H -1.405106000000000 0.928615000000000 0.656414000000000
H -1.715576000000000 2.664229000000000 0.500080000000000
H -0.650931000000000 2.056020000000000 1.792399000000000
H 0.841055000000000 3.199875000000000 -0.084492000000000
C 0.896802000000000 -1.790414000000000 0.800079000000000
S -0.430447000000000 -1.911330000000000 -0.426467000000000
H 0.530684000000000 -2.284804000000000 1.695862000000000
H 1.120799000000000 -0.753008000000000 1.029395000000000
H 1.792823000000000 -2.300782000000000 0.461195000000000
H 0.177021000000000 -1.201173000000000 -1.377499000000000

ch3sh_dimer_105.wfx

