10
 ch3sh_nh3_cs, factor= 1.5, energy= -1.18
 S         0.688470        0.927763        0.000000
 C        -1.047914        1.441629        0.000000
 H         0.448624       -0.389852        0.000000
 H        -1.563201        1.091686        0.889402
 H        -1.054459        2.528211        0.000000
 H        -1.563201        1.091686       -0.889402
 N        -0.354619       -3.802372        0.000000
 H         0.066228       -4.242605       -0.808104
 H         0.066228       -4.242605        0.808104
 H        -1.324607       -4.090331        0.000000
