9
 ch3sh_h2o_cs, factor= 2.0, energy= -0.39
 S         0.678036        0.958194        0.000000
 C        -1.097422        1.314396        0.000000
 H         0.557489       -0.371244        0.000000
 H        -1.578466        0.919018        0.889111
 H        -1.198372        2.396287        0.000000
 H        -1.578466        0.919018       -0.889111
 O        -0.708714       -4.815236        0.000000
 H        -0.563812       -5.389517       -0.754927
 H        -0.563812       -5.389517        0.754927
