 6
# Fragment[ 7 8 9 10 11 12] of  ch3sh_dimer, factor= 1.0, energy= -3.15
 C        0.896802000    -1.790414000     0.800079000
 S       -0.430447000    -1.911330000    -0.426467000
 H        0.530684000    -2.284804000     1.695862000
 H        1.120799000    -0.753008000     1.029395000
 H        1.792823000    -2.300782000     0.461195000
 H        0.177021000    -1.201173000    -1.377499000
