 12
# Fragment[ 10 11 15 21 12 16 14 20 13 17 19 18] of  ch3sch3_benzene_c2v, factor= 1.0, energy= -1.12
 C        0.000000000     1.392995000     1.867031000
 C       -1.207016000     0.696489000     1.867722000
 C        1.207016000     0.696489000     1.867722000
 H        0.000000000     2.474747000     1.867030000
 C       -1.207016000    -0.696489000     1.867722000
 H       -2.143728000     1.236997000     1.864666000
 C        1.207016000    -0.696489000     1.867722000
 H        2.143728000     1.236997000     1.864666000
 C        0.000000000    -1.392995000     1.867031000
 H       -2.143728000    -1.236997000     1.864666000
 H        2.143728000    -1.236997000     1.864666000
 H        0.000000000    -2.474747000     1.867030000
