 9
# Fragment[ 1 2 3 7 8 9 4 5 6] of  ch3sch3_benzene_c2v, factor= 1.0, energy= -1.12
 S        0.000000000     0.000000000    -1.639862000
 C        0.000000000    -1.357444000    -2.822962000
 C        0.000000000     1.357444000    -2.822962000
 H        0.889712000    -1.330259000    -3.449780000
 H        0.000000000    -2.284255000    -2.254048000
 H       -0.889712000    -1.330259000    -3.449780000
 H       -0.889712000     1.330259000    -3.449780000
 H        0.000000000     2.284255000    -2.254048000
 H        0.889712000     1.330259000    -3.449780000
