12
 ch3sh_dimer, factor= 1.1, energy= -2.72
 C        -0.959353        2.070128        0.812035
 S         0.447630        2.114306       -0.326862
 H        -1.392805        1.079318        0.704171
 H        -1.703276        2.814933        0.547836
 H        -0.638631        2.206724        1.840155
 H         0.853355        3.350578       -0.036735
 C         0.896802       -1.790414        0.800079
 S        -0.430447       -1.911330       -0.426467
 H         0.530684       -2.284804        1.695862
 H         1.120799       -0.753008        1.029395
 H         1.792823       -2.300782        0.461195
 H         0.177021       -1.201173       -1.377499
