 6
# Fragment[ 1 2 3 4 5 6] of  ch3sh_nh3_cs, factor= 1.0, energy= -2.95
 S        0.688470000     0.927763000     0.000000000
 C       -1.047914000     1.441629000     0.000000000
 H        0.448624000    -0.389852000     0.000000000
 H       -1.563201000     1.091686000     0.889402000
 H       -1.054459000     2.528211000     0.000000000
 H       -1.563201000     1.091686000    -0.889402000
