%nprocs=4
%mem=4GB
#p pbepbe aug-cc-pvtz output=wfx scf=(conver=6) int=(grid=ultrafine)

title

0 1
C 0.000000000000000 1.392995000000000 1.867031000000000
C -1.207016000000000 0.696489000000000 1.867722000000000
C 1.207016000000000 0.696489000000000 1.867722000000000
H 0.000000000000000 2.474747000000000 1.867030000000000
C -1.207016000000000 -0.696489000000000 1.867722000000000
H -2.143728000000000 1.236997000000000 1.864666000000000
C 1.207016000000000 -0.696489000000000 1.867722000000000
H 2.143728000000000 1.236997000000000 1.864666000000000
C 0.000000000000000 -1.392995000000000 1.867031000000000
H -2.143728000000000 -1.236997000000000 1.864666000000000
H 2.143728000000000 -1.236997000000000 1.864666000000000
H 0.000000000000000 -2.474747000000000 1.867030000000000

ch3sch3_benzene_c2v_2.wfx

