12
 ch3sh_dimer, factor= 0.9, energy= -2.62
 C        -1.008555        1.467314        0.621010
 S         0.398428        1.511492       -0.517887
 H        -1.442007        0.476504        0.513146
 H        -1.752478        2.212118        0.356811
 H        -0.687832        1.603909        1.649130
 H         0.804153        2.747764       -0.227760
 C         0.896802       -1.790414        0.800079
 S        -0.430447       -1.911330       -0.426467
 H         0.530684       -2.284804        1.695862
 H         1.120799       -0.753008        1.029395
 H         1.792823       -2.300782        0.461195
 H         0.177021       -1.201173       -1.377499
