%nprocs=4
%mem=4GB
#p pbepbe aug-cc-pvtz output=wfx scf=(conver=6) int=(grid=ultrafine)

title

0 1
C 0.111410000000000 -2.282770000000000 0.561372000000000
O -0.089184000000000 -2.090052000000000 -0.619056000000000
H -0.055182000000000 -3.268153000000000 1.020645000000000
H 0.468512000000000 -1.480104000000000 1.223285000000000

ch3sh_h2co_2.wfx

