%nprocs=4
%mem=4GB
#p pbepbe aug-cc-pvtz output=wfx scf=(conver=6) int=(grid=ultrafine)

title

0 1
S 0.779515000000000 2.257972000000000 0.000000000000000
C -1.015571000000000 2.488997000000000 0.000000000000000
H 0.754913000000000 0.923350000000000 0.000000000000000
H -1.190627000000000 3.561804000000000 0.000000000000000
H -1.466354000000000 2.058713000000000 -0.889264000000000
H -1.466354000000000 2.058713000000000 0.889264000000000
C 0.190767000000000 -2.736675000000000 -1.207526000000000
C -1.161788000000000 -2.398832000000000 -1.207375000000000
C -1.838398000000000 -2.231858000000000 0.000000000000000
C -1.161788000000000 -2.398832000000000 1.207375000000000
C 0.190767000000000 -2.736675000000000 1.207526000000000
C 0.866722000000000 -2.907154000000000 0.000000000000000
H -1.685603000000000 -2.266832000000000 -2.144286000000000
H -2.888585000000000 -1.973064000000000 0.000000000000000
H -1.685603000000000 -2.266832000000000 2.144286000000000
H 0.716127000000000 -2.863692000000000 2.144045000000000
H 1.916185000000000 -3.167927000000000 0.000000000000000
H 0.716127000000000 -2.863692000000000 -2.144045000000000

ch3sh_benzene_cs_150.wfx

