%nprocs=4
%mem=4GB
#p pbepbe aug-cc-pvtz output=wfx scf=(conver=6) int=(grid=ultrafine)

title

0 1
C -0.996255000000000 1.618017000000000 0.668766000000000
S 0.410729000000000 1.662195000000000 -0.470131000000000
H -1.429707000000000 0.627207000000000 0.560902000000000
H -1.740177000000000 2.362822000000000 0.404567000000000
H -0.675532000000000 1.754613000000000 1.696887000000000
H 0.816454000000000 2.898467000000000 -0.180004000000000
C 0.896802000000000 -1.790414000000000 0.800079000000000
S -0.430447000000000 -1.911330000000000 -0.426467000000000
H 0.530684000000000 -2.284804000000000 1.695862000000000
H 1.120799000000000 -0.753008000000000 1.029395000000000
H 1.792823000000000 -2.300782000000000 0.461195000000000
H 0.177021000000000 -1.201173000000000 -1.377499000000000

ch3sh_dimer_095.wfx

