10
 ch3sh_h2co, factor= 1.0, energy= -3.11
 C        -1.151251        1.488626        0.056543
 S         0.651215        1.337311       -0.031735
 H        -1.360067        2.374376        0.650097
 H        -1.597552        0.627284        0.544269
 H        -1.582766        1.618991       -0.930693
 H         0.658434        0.213802       -0.752707
 C         0.111410       -2.282770        0.561372
 O        -0.089184       -2.090052       -0.619056
 H        -0.055182       -3.268153        1.020645
 H         0.468512       -1.480104        1.223285
