%nprocs=4
%mem=4GB
#p pbepbe aug-cc-pvtz output=wfx scf=(conver=6) int=(grid=ultrafine)

title

0 1
S 0.779515000000000 2.257972000000000 0.000000000000000
C -1.015571000000000 2.488997000000000 0.000000000000000
H 0.754913000000000 0.923350000000000 0.000000000000000
H -1.190627000000000 3.561804000000000 0.000000000000000
H -1.466354000000000 2.058713000000000 -0.889264000000000
H -1.466354000000000 2.058713000000000 0.889264000000000
C 0.645552000000000 -1.456594000000000 -1.207526000000000
C -0.707004000000000 -1.118752000000000 -1.207375000000000
C -1.383614000000000 -0.951778000000000 0.000000000000000
C -0.707004000000000 -1.118752000000000 1.207375000000000
C 0.645552000000000 -1.456594000000000 1.207526000000000
C 1.321506000000000 -1.627074000000000 0.000000000000000
H -1.230819000000000 -0.986751000000000 -2.144286000000000
H -2.433800000000000 -0.692984000000000 0.000000000000000
H -1.230819000000000 -0.986751000000000 2.144286000000000
H 1.170911000000000 -1.583612000000000 2.144045000000000
H 2.370970000000000 -1.887846000000000 0.000000000000000
H 1.170911000000000 -1.583612000000000 -2.144045000000000

ch3sh_benzene_cs_095.wfx

