10
 ch3sh_nh3_cs, factor= 0.95, energy= -2.91
 S         0.688470        0.927763        0.000000
 C        -1.047914        1.441629        0.000000
 H         0.448624       -0.389852        0.000000
 H        -1.563201        1.091686        0.889402
 H        -1.054459        2.528211        0.000000
 H        -1.563201        1.091686       -0.889402
 N        -0.060096       -2.551114        0.000000
 H         0.360750       -2.991348       -0.808104
 H         0.360750       -2.991348        0.808104
 H        -1.030084       -2.839074        0.000000
