%nprocs=4
%mem=4GB
#p pbepbe aug-cc-pvtz output=wfx scf=(conver=6) int=(grid=ultrafine)

title

0 1
S 0.779515000000000 2.257972000000000 0.000000000000000
C -1.015571000000000 2.488997000000000 0.000000000000000
H 0.754913000000000 0.923350000000000 0.000000000000000
H -1.190627000000000 3.561804000000000 0.000000000000000
H -1.466354000000000 2.058713000000000 -0.889264000000000
H -1.466354000000000 2.058713000000000 0.889264000000000
C -0.222673000000000 -3.900384000000000 -1.207526000000000
C -1.575229000000000 -3.562541000000000 -1.207375000000000
C -2.251839000000000 -3.395568000000000 0.000000000000000
C -1.575229000000000 -3.562541000000000 1.207375000000000
C -0.222673000000000 -3.900384000000000 1.207526000000000
C 0.453281000000000 -4.070864000000000 0.000000000000000
H -2.099044000000000 -3.430541000000000 -2.144286000000000
H -3.302025000000000 -3.136773000000000 0.000000000000000
H -2.099044000000000 -3.430541000000000 2.144286000000000
H 0.302686000000000 -4.027402000000000 2.144045000000000
H 1.502744000000000 -4.331636000000000 0.000000000000000
H 0.302686000000000 -4.027402000000000 -2.144045000000000

ch3sh_benzene_cs_200.wfx

