%nprocs=4
%mem=4GB
#p pbepbe aug-cc-pvtz output=wfx scf=(conver=6) int=(grid=ultrafine)

title

0 1
S 0.688470000000000 0.927763000000000 0.000000000000000
C -1.047914000000000 1.441629000000000 0.000000000000000
H 0.448624000000000 -0.389852000000000 0.000000000000000
H -1.563201000000000 1.091686000000000 0.889402000000000
H -1.054459000000000 2.528211000000000 0.000000000000000
H -1.563201000000000 1.091686000000000 -0.889402000000000
N -0.033322000000000 -2.437364000000000 0.000000000000000
H 0.387525000000000 -2.877597000000000 -0.808104000000000
H 0.387525000000000 -2.877597000000000 0.808104000000000
H -1.003309000000000 -2.725323000000000 0.000000000000000

ch3sh_nh3_cs_090.wfx

