 6
# Fragment[ 1 2 3 4 5 6] of  ch3sh_h2o_cs, factor= 1.0, energy= -2.36
 S        0.678036000     0.958194000     0.000000000
 C       -1.097422000     1.314396000     0.000000000
 H        0.557489000    -0.371244000     0.000000000
 H       -1.578466000     0.919018000     0.889111000
 H       -1.198372000     2.396287000     0.000000000
 H       -1.578466000     0.919018000    -0.889111000
