%nprocs=4
%mem=4GB
#p pbepbe aug-cc-pvtz output=wfx scf=(conver=6) int=(grid=ultrafine)

title

0 1
S 0.000000000000000 0.000000000000000 -1.639862000000000
C 0.000000000000000 -1.357444000000000 -2.822962000000000
C 0.000000000000000 1.357444000000000 -2.822962000000000
H -0.889712000000000 1.330259000000000 -3.449780000000000
H 0.000000000000000 2.284255000000000 -2.254048000000000
H 0.889712000000000 1.330259000000000 -3.449780000000000
H 0.889712000000000 -1.330259000000000 -3.449780000000000
H 0.000000000000000 -2.284255000000000 -2.254048000000000
H -0.889712000000000 -1.330259000000000 -3.449780000000000
C 0.000000000000000 1.392995000000000 2.217721000000000
C -1.207016000000000 0.696489000000000 2.218411000000000
C -1.207016000000000 -0.696489000000000 2.218411000000000
C 0.000000000000000 -1.392995000000000 2.217721000000000
C 1.207016000000000 -0.696489000000000 2.218411000000000
C 1.207016000000000 0.696489000000000 2.218411000000000
H -2.143728000000000 1.236997000000000 2.215355000000000
H -2.143728000000000 -1.236997000000000 2.215355000000000
H 0.000000000000000 -2.474747000000000 2.217719000000000
H 2.143728000000000 -1.236997000000000 2.215355000000000
H 2.143728000000000 1.236997000000000 2.215355000000000
H 0.000000000000000 2.474747000000000 2.217719000000000

ch3sch3_benzene_c2v_110.wfx

