12
 ch3sh_dimer, factor= 0.95, energy= -3.09
 C        -0.996255        1.618017        0.668766
 S         0.410729        1.662195       -0.470131
 H        -1.429707        0.627207        0.560902
 H        -1.740177        2.362822        0.404567
 H        -0.675532        1.754613        1.696887
 H         0.816454        2.898467       -0.180004
 C         0.896802       -1.790414        0.800079
 S        -0.430447       -1.911330       -0.426467
 H         0.530684       -2.284804        1.695862
 H         1.120799       -0.753008        1.029395
 H         1.792823       -2.300782        0.461195
 H         0.177021       -1.201173       -1.377499
