%nprocs=4
%mem=4GB
#p pbepbe aug-cc-pvtz output=wfx scf=(conver=6) int=(grid=ultrafine)

title

0 1
C -1.151251000000000 1.488626000000000 0.056543000000000
S 0.651215000000000 1.337311000000000 -0.031735000000000
H -1.360067000000000 2.374376000000000 0.650097000000000
H -1.597552000000000 0.627284000000000 0.544269000000000
H -1.582766000000000 1.618991000000000 -0.930693000000000
H 0.658434000000000 0.213802000000000 -0.752707000000000
C -0.262399000000000 -3.434697000000000 0.628197000000000
O -0.462993000000000 -3.241979000000000 -0.552231000000000
H -0.428991000000000 -4.420080000000000 1.087470000000000
H 0.094703000000000 -2.632031000000000 1.290111000000000

ch3sh_h2co_150.wfx

