10
 ch3sh_h2co, factor= 1.25, energy= -2.01
 C        -1.151251        1.488626        0.056543
 S         0.651215        1.337311       -0.031735
 H        -1.360067        2.374376        0.650097
 H        -1.597552        0.627284        0.544269
 H        -1.582766        1.618991       -0.930693
 H         0.658434        0.213802       -0.752707
 C        -0.075494       -2.858733        0.594784
 O        -0.276089       -2.666016       -0.585644
 H        -0.242086       -3.844116        1.054058
 H         0.281607       -2.056068        1.256698
