%nprocs=4
%mem=4GB
#p pbepbe aug-cc-pvtz output=wfx scf=(conver=6) int=(grid=ultrafine)

title

0 1
N -0.086871000000000 -2.664865000000000 0.000000000000000
H 0.333975000000000 -3.105098000000000 -0.808104000000000
H 0.333975000000000 -3.105098000000000 0.808104000000000
H -1.056859000000000 -2.952825000000000 0.000000000000000

ch3sh_nh3_cs_2.wfx

