%nprocs=4
%mem=4GB
#p pbepbe aug-cc-pvtz output=wfx scf=(conver=6) int=(grid=ultrafine)

title

0 1
S 0.779515000000000 2.257972000000000 0.000000000000000
C -1.015571000000000 2.488997000000000 0.000000000000000
H 0.754913000000000 0.923350000000000 0.000000000000000
H -1.190627000000000 3.561804000000000 0.000000000000000
H -1.466354000000000 2.058713000000000 -0.889264000000000
H -1.466354000000000 2.058713000000000 0.889264000000000
C 0.397488000000000 -2.154820000000000 -1.207526000000000
C -0.955068000000000 -1.816977000000000 -1.207375000000000
C -1.631678000000000 -1.650004000000000 0.000000000000000
C -0.955068000000000 -1.816977000000000 1.207375000000000
C 0.397488000000000 -2.154820000000000 1.207526000000000
C 1.073442000000000 -2.325299000000000 0.000000000000000
H -1.478883000000000 -1.684977000000000 -2.144286000000000
H -2.681865000000000 -1.391209000000000 0.000000000000000
H -1.478883000000000 -1.684977000000000 2.144286000000000
H 0.922847000000000 -2.281837000000000 2.144045000000000
H 2.122905000000000 -2.586072000000000 0.000000000000000
H 0.922847000000000 -2.281837000000000 -2.144045000000000

ch3sh_benzene_cs_125.wfx

