%nprocs=4
%mem=4GB
#p pbepbe aug-cc-pvtz output=wfx scf=(conver=6) int=(grid=ultrafine)

title

0 1
S 0.678036000000000 0.958194000000000 0.000000000000000
C -1.097422000000000 1.314396000000000 0.000000000000000
H 0.557489000000000 -0.371244000000000 0.000000000000000
H -1.578466000000000 0.919018000000000 0.889111000000000
H -1.198372000000000 2.396287000000000 0.000000000000000
H -1.578466000000000 0.919018000000000 -0.889111000000000
O -0.138922000000000 -2.815440000000000 0.000000000000000
H 0.005979000000000 -3.389721000000000 -0.754927000000000
H 0.005979000000000 -3.389721000000000 0.754927000000000

ch3sh_h2o_cs_110.wfx

