%nprocs=4
%mem=4GB
#p pbepbe aug-cc-pvtz output=wfx scf=(conver=6) int=(grid=ultrafine)

title

0 1
S 0.779515000000000 2.257972000000000 0.000000000000000
C -1.015571000000000 2.488997000000000 0.000000000000000
H 0.754913000000000 0.923350000000000 0.000000000000000
H -1.190627000000000 3.561804000000000 0.000000000000000
H -1.466354000000000 2.058713000000000 -0.889264000000000
H -1.466354000000000 2.058713000000000 0.889264000000000
C 0.604208000000000 -1.572965000000000 -1.207526000000000
C -0.748348000000000 -1.235123000000000 -1.207375000000000
C -1.424958000000000 -1.068149000000000 0.000000000000000
C -0.748348000000000 -1.235123000000000 1.207375000000000
C 0.604208000000000 -1.572965000000000 1.207526000000000
C 1.280162000000000 -1.743444000000000 0.000000000000000
H -1.272163000000000 -1.103122000000000 -2.144286000000000
H -2.475144000000000 -0.809355000000000 0.000000000000000
H -1.272163000000000 -1.103122000000000 2.144286000000000
H 1.129567000000000 -1.699983000000000 2.144045000000000
H 2.329626000000000 -2.004217000000000 0.000000000000000
H 1.129567000000000 -1.699983000000000 -2.144045000000000

ch3sh_benzene_cs_100.wfx

