10
 ch3sh_nh3_cs, factor= 1.0, energy= -2.95
 S         0.688470        0.927763        0.000000
 C        -1.047914        1.441629        0.000000
 H         0.448624       -0.389852        0.000000
 H        -1.563201        1.091686        0.889402
 H        -1.054459        2.528211        0.000000
 H        -1.563201        1.091686       -0.889402
 N        -0.086871       -2.664865        0.000000
 H         0.333975       -3.105098       -0.808104
 H         0.333975       -3.105098        0.808104
 H        -1.056859       -2.952825        0.000000
