10
 ch3sh_h2co, factor= 1.5, energy= -1.09
 C        -1.151251        1.488626        0.056543
 S         0.651215        1.337311       -0.031735
 H        -1.360067        2.374376        0.650097
 H        -1.597552        0.627284        0.544269
 H        -1.582766        1.618991       -0.930693
 H         0.658434        0.213802       -0.752707
 C        -0.262399       -3.434697        0.628197
 O        -0.462993       -3.241979       -0.552231
 H        -0.428991       -4.420080        1.087470
 H         0.094703       -2.632031        1.290111
