%nprocs=4
%mem=4GB
#p pbepbe aug-cc-pvtz output=wfx scf=(conver=6) int=(grid=ultrafine)

title

0 1
C -1.151251000000000 1.488626000000000 0.056543000000000
S 0.651215000000000 1.337311000000000 -0.031735000000000
H -1.360067000000000 2.374376000000000 0.650097000000000
H -1.597552000000000 0.627284000000000 0.544269000000000
H -1.582766000000000 1.618991000000000 -0.930693000000000
H 0.658434000000000 0.213802000000000 -0.752707000000000
C 0.111410000000000 -2.282770000000000 0.561372000000000
O -0.089184000000000 -2.090052000000000 -0.619056000000000
H -0.055182000000000 -3.268153000000000 1.020645000000000
H 0.468512000000000 -1.480104000000000 1.223285000000000

ch3sh_h2co_100.wfx

