10
 ch3sh_nh3_cs, factor= 1.25, energy= -2.06
 S         0.688470        0.927763        0.000000
 C        -1.047914        1.441629        0.000000
 H         0.448624       -0.389852        0.000000
 H        -1.563201        1.091686        0.889402
 H        -1.054459        2.528211        0.000000
 H        -1.563201        1.091686       -0.889402
 N        -0.220745       -3.233618        0.000000
 H         0.200102       -3.673852       -0.808104
 H         0.200102       -3.673852        0.808104
 H        -1.190733       -3.521578        0.000000
