18
 ch3sh_benzene_cs, factor= 1.5, energy= -1.39
 S         0.779515        2.257972        0.000000
 C        -1.015571        2.488997        0.000000
 H         0.754913        0.923350        0.000000
 H        -1.190627        3.561804        0.000000
 H        -1.466354        2.058713       -0.889264
 H        -1.466354        2.058713        0.889264
 C         0.190767       -2.736675       -1.207526
 C        -1.161788       -2.398832       -1.207375
 C        -1.838398       -2.231858        0.000000
 C        -1.161788       -2.398832        1.207375
 C         0.190767       -2.736675        1.207526
 C         0.866722       -2.907154        0.000000
 H        -1.685603       -2.266832       -2.144286
 H        -2.888585       -1.973064        0.000000
 H        -1.685603       -2.266832        2.144286
 H         0.716127       -2.863692        2.144045
 H         1.916185       -3.167927        0.000000
 H         0.716127       -2.863692       -2.144045
