%nprocs=4
%mem=4GB
#p pbepbe aug-cc-pvtz output=wfx scf=(conver=6) int=(grid=ultrafine)

title

0 1
C -0.922452000000000 2.522239000000000 0.955304000000000
S 0.484531000000000 2.566417000000000 -0.183593000000000
H -1.355904000000000 1.531429000000000 0.847439000000000
H -1.666375000000000 3.267044000000000 0.691105000000000
H -0.601729000000000 2.658834000000000 1.983424000000000
H 0.890256000000000 3.802689000000000 0.106533000000000
C 0.896802000000000 -1.790414000000000 0.800079000000000
S -0.430447000000000 -1.911330000000000 -0.426467000000000
H 0.530684000000000 -2.284804000000000 1.695862000000000
H 1.120799000000000 -0.753008000000000 1.029395000000000
H 1.792823000000000 -2.300782000000000 0.461195000000000
H 0.177021000000000 -1.201173000000000 -1.377499000000000

ch3sh_dimer_125.wfx

