%nprocs=4
%mem=4GB
#p pbepbe aug-cc-pvtz output=wfx scf=(conver=6) int=(grid=ultrafine)

title

0 1
C 1.152285000000000 1.504542000000000 -0.486178000000000
S -0.483922000000000 1.867145000000000 0.206910000000000
H 1.071252000000000 1.676116000000000 -1.556110000000000
H 1.422769000000000 0.468990000000000 -0.302374000000000
H 1.898584000000000 2.178873000000000 -0.079115000000000
H -0.194151000000000 1.535812000000000 1.465591000000000
C 0.024675000000000 -2.027653000000000 0.047512000000000
O 1.087117000000000 -1.559925000000000 0.420420000000000
N -1.076560000000000 -1.307355000000000 -0.264032000000000
H -1.924231000000000 -1.771419000000000 -0.528883000000000
H -1.067642000000000 -0.301749000000000 -0.153701000000000
H -0.130580000000000 -3.109830000000000 -0.078122000000000

formamide_ch3sh_090.wfx

