12
 formamide_ch3sh, factor= 0.9, energy= -5.61
 C         1.152285        1.504542       -0.486178
 S        -0.483922        1.867145        0.206910
 H         1.071252        1.676116       -1.556110
 H         1.422769        0.468990       -0.302374
 H         1.898584        2.178873       -0.079115
 H        -0.194151        1.535812        1.465591
 C         0.024675       -2.027653        0.047512
 O         1.087117       -1.559925        0.420420
 N        -1.076560       -1.307355       -0.264032
 H        -1.924231       -1.771419       -0.528883
 H        -1.067642       -0.301749       -0.153701
 H        -0.130580       -3.109830       -0.078122
