%nprocs=4
%mem=4GB
#p pbepbe aug-cc-pvtz output=wfx scf=(conver=6) int=(grid=ultrafine)

title

0 1
C 1.152285000000000 1.504542000000000 -0.486178000000000
S -0.483922000000000 1.867145000000000 0.206910000000000
H 1.071252000000000 1.676116000000000 -1.556110000000000
H 1.422769000000000 0.468990000000000 -0.302374000000000
H 1.898584000000000 2.178873000000000 -0.079115000000000
H -0.194151000000000 1.535812000000000 1.465591000000000
C -0.072612000000000 -2.389136000000000 -0.012590000000000
O 0.989830000000000 -1.921408000000000 0.360318000000000
N -1.173846000000000 -1.668838000000000 -0.324134000000000
H -2.021518000000000 -2.132901000000000 -0.588985000000000
H -1.164928000000000 -0.663231000000000 -0.213803000000000
H -0.227866000000000 -3.471312000000000 -0.138224000000000

formamide_ch3sh_105.wfx

