%nprocs=4
%mem=4GB
#p pbepbe aug-cc-pvtz output=wfx scf=(conver=6) int=(grid=ultrafine)

title

0 1
C 1.152285000000000 1.504542000000000 -0.486178000000000
S -0.483922000000000 1.867145000000000 0.206910000000000
H 1.071252000000000 1.676116000000000 -1.556110000000000
H 1.422769000000000 0.468990000000000 -0.302374000000000
H 1.898584000000000 2.178873000000000 -0.079115000000000
H -0.194151000000000 1.535812000000000 1.465591000000000
C -0.202327000000000 -2.871112000000000 -0.092726000000000
O 0.860115000000000 -2.403384000000000 0.280182000000000
N -1.303562000000000 -2.150814000000000 -0.404270000000000
H -2.151233000000000 -2.614877000000000 -0.669121000000000
H -1.294644000000000 -1.145207000000000 -0.293939000000000
H -0.357582000000000 -3.953288000000000 -0.218360000000000

formamide_ch3sh_125.wfx

