 6
# Fragment[ 7 8 9 12 10 11] of  formamide_ch3sh, factor= 1.0, energy= -6.33
 C       -0.040183000    -2.268641000     0.007444000
 O        1.022259000    -1.800914000     0.380352000
 N       -1.141418000    -1.548343000    -0.304100000
 H       -0.195437000    -3.350818000    -0.118190000
 H       -1.989089000    -2.012407000    -0.568951000
 H       -1.132499000    -0.542737000    -0.193769000
