6
 h2o_h2s_cs, factor= 2.0, energy= -0.31
 O         0.046884       -2.293802        0.000000
 H        -0.805511       -2.732678        0.000000
 H        -0.179936       -1.358345        0.000000
 S         0.043828        3.875856        0.000000
 H         0.961502        3.767786       -0.960960
 H         0.961502        3.767786        0.960960
