 9
# Fragment[ 1 2 6 3 4 5 7 8 9] of  h2o_ch3sch3_cs, factor= 1.0, energy= -5.35
 S        0.621513000    -0.789789000     0.000000000
 C       -0.552898000    -0.664999000    -1.360784000
 C       -0.552898000    -0.664999000     1.360784000
 H       -1.261461000    -1.489855000    -1.328509000
 H       -1.080381000     0.285619000    -1.323247000
 H        0.012979000    -0.722208000    -2.287249000
 H       -1.261461000    -1.489855000     1.328509000
 H        0.012979000    -0.722208000     2.287249000
 H       -1.080381000     0.285619000     1.323247000
