6
 h2o_dimer_cs, factor= 1.5, energy= -2.13
 O        -0.054524        1.581007        0.000000
 H         0.853478        1.886707        0.000000
 H         0.029467        0.619943        0.000000
 O         0.024090       -2.395604        0.000000
 H        -0.421262       -2.783945       -0.756177
 H        -0.421262       -2.783945        0.756177
