6
 h2o_dimer_cs, factor= 1.05, energy= -4.78
 O        -0.054524        1.581007        0.000000
 H         0.853478        1.886707        0.000000
 H         0.029467        0.619943        0.000000
 O         0.025703       -1.490940        0.000000
 H        -0.419649       -1.879281       -0.756177
 H        -0.419649       -1.879281        0.756177
