12
 h2o_ch3sch3_cs, factor= 1.1, energy= -4.77
 S         0.621513       -0.789789        0.000000
 C        -0.552898       -0.664999       -1.360784
 H        -1.261461       -1.489855       -1.328509
 H        -1.080381        0.285619       -1.323247
 H         0.012979       -0.722208       -2.287249
 C        -0.552898       -0.664999        1.360784
 H        -1.261461       -1.489855        1.328509
 H         0.012979       -0.722208        2.287249
 H        -1.080381        0.285619        1.323247
 O         0.009409        2.701131        0.000000
 H         0.658100        3.407160        0.000000
 H         0.543389        1.895530        0.000000
