6
 h2o_h2s_cs, factor= 1.1, energy= -2.53
 O         0.046884       -2.293802        0.000000
 H        -0.805511       -2.732678        0.000000
 H        -0.179936       -1.358345        0.000000
 S        -0.056866        1.520465        0.000000
 H         0.860808        1.412395       -0.960960
 H         0.860808        1.412395        0.960960
