6
 h2o_dimer_cs, factor= 1.25, energy= -3.49
 O        -0.054524        1.581007        0.000000
 H         0.853478        1.886707        0.000000
 H         0.029467        0.619943        0.000000
 O         0.024987       -1.893013        0.000000
 H        -0.420366       -2.281354       -0.756177
 H        -0.420366       -2.281354        0.756177
