12
 h2o_ch3sch3_cs, factor= 2.0, energy= -0.58
 S         0.621513       -0.789789        0.000000
 C        -0.552898       -0.664999       -1.360784
 H        -1.261461       -1.489855       -1.328509
 H        -1.080381        0.285619       -1.323247
 H         0.012979       -0.722208       -2.287249
 C        -0.552898       -0.664999        1.360784
 H        -1.261461       -1.489855        1.328509
 H         0.012979       -0.722208        2.287249
 H        -1.080381        0.285619        1.323247
 O        -0.054511        4.898210        0.000000
 H         0.594180        5.604239        0.000000
 H         0.479470        4.092608        0.000000
