%nprocs=4
%mem=4GB
#p pbepbe aug-cc-pvtz output=wfx scf=(conver=6) int=(grid=ultrafine)

title

0 1
S 0.041076000000000 -2.135096000000000 0.000000000000000
H -1.272136000000000 -2.360500000000000 0.000000000000000
H -0.130032000000000 -0.810646000000000 0.000000000000000
S -0.054058000000000 2.353687000000000 0.000000000000000
H 0.866580000000000 2.424674000000000 -0.961210000000000
H 0.866580000000000 2.424674000000000 0.961210000000000

h2s_dimer_cs_110.wfx

