6
 h2s_dimer_cs, factor= 0.95, energy= -1.64
 S         0.041076       -2.135096        0.000000
 H        -1.272136       -2.360500        0.000000
 H        -0.130032       -0.810646        0.000000
 S        -0.064418        1.922187        0.000000
 H         0.856220        1.993174       -0.961210
 H         0.856220        1.993174        0.961210
