8
 h2s_ch4, factor= 2.0, energy= -0.03
 S         0.080299        1.333240        0.025922
 H        -0.629381        2.461103        0.007509
 H        -1.015174        0.578039       -0.041582
 C         1.080582       -5.453914        0.043668
 H        -0.002624       -5.448112       -0.033633
 H         1.432641       -6.480392        0.065761
 H         1.509167       -4.943411       -0.813251
 H         1.382942       -4.948668        0.955765
