6
 h2s_h2o_cs, factor= 0.9, energy= -2.39
 S         0.059888       -1.363007        0.000000
 H        -1.267296       -1.478023        0.000000
 H         0.002821       -0.027772        0.000000
 O        -0.013051        1.997220        0.000000
 H         0.214168        2.543200       -0.755525
 H         0.214168        2.543200        0.755525
