8
 h2s_ch4, factor= 1.25, energy= -0.38
 S         0.080299        1.333240        0.025922
 H        -0.629381        2.461103        0.007509
 H        -1.015174        0.578039       -0.041582
 C         0.294674       -3.191932        0.011699
 H        -0.788533       -3.186130       -0.065602
 H         0.646732       -4.218409        0.033792
 H         0.723259       -2.681429       -0.845220
 H         0.597034       -2.686686        0.923796
