6
 h2s_dimer_cs, factor= 1.25, energy= -1.01
 S         0.041076       -2.135096        0.000000
 H        -1.272136       -2.360500        0.000000
 H        -0.130032       -0.810646        0.000000
 S        -0.043697        2.785187        0.000000
 H         0.876940        2.856174       -0.961210
 H         0.876940        2.856174        0.961210
