6
 h2s_h2o_cs, factor= 1.5, energy= -1.10
 S         0.059888       -1.363007        0.000000
 H        -1.267296       -1.478023        0.000000
 H         0.002821       -0.027772        0.000000
 O        -0.023633        3.347215        0.000000
 H         0.203586        3.893195       -0.755525
 H         0.203586        3.893195        0.755525
