8
 h2s_ch4, factor= 1.05, energy= -0.77
 S         0.080299        1.333240        0.025922
 H        -0.629381        2.461103        0.007509
 H        -1.015174        0.578039       -0.041582
 C         0.085098       -2.588737        0.003174
 H        -0.998108       -2.582934       -0.074127
 H         0.437157       -3.615214        0.025267
 H         0.513683       -2.078233       -0.853745
 H         0.387458       -2.083491        0.915271
