%nprocs=4
%mem=4GB
#p pbepbe aug-cc-pvtz output=wfx scf=(conver=6) int=(grid=ultrafine)

title

0 1
S 0.080299000000000 1.333240000000000 0.025922000000000
H -0.629381000000000 2.461103000000000 0.007509000000000
H -1.015174000000000 0.578039000000000 -0.041582000000000
C 1.080582000000000 -5.453914000000000 0.043668000000000
H -0.002624000000000 -5.448112000000000 -0.033633000000000
H 1.432641000000000 -6.480392000000000 0.065761000000000
H 1.509167000000000 -4.943411000000000 -0.813251000000000
H 1.382942000000000 -4.948668000000000 0.955765000000000

h2s_ch4_200.wfx

