6
 h2s_h2o_cs, factor= 1.1, energy= -2.43
 S         0.059888       -1.363007        0.000000
 H        -1.267296       -1.478023        0.000000
 H         0.002821       -0.027772        0.000000
 O        -0.016578        2.447218        0.000000
 H         0.210640        2.993198       -0.755525
 H         0.210640        2.993198        0.755525
