%nprocs=4
%mem=4GB
#p pbepbe aug-cc-pvtz output=wfx scf=(conver=6) int=(grid=ultrafine)

title

0 1
S 0.059888000000000 -1.363007000000000 0.000000000000000
H -1.267296000000000 -1.478023000000000 0.000000000000000
H 0.002821000000000 -0.027772000000000 0.000000000000000
O -0.015697000000000 2.334719000000000 0.000000000000000
H 0.211522000000000 2.880698000000000 -0.755525000000000
H 0.211522000000000 2.880698000000000 0.755525000000000

h2s_h2o_cs_105.wfx

