6
 h2s_dimer_cs, factor= 0.9, energy= -1.43
 S         0.041076       -2.135096        0.000000
 H        -1.272136       -2.360500        0.000000
 H        -0.130032       -0.810646        0.000000
 S        -0.067871        1.778354        0.000000
 H         0.852766        1.849340       -0.961210
 H         0.852766        1.849340        0.961210
