%nprocs=4
%mem=4GB
#p pbepbe aug-cc-pvtz output=wfx scf=(conver=6) int=(grid=ultrafine)

title

0 1
S 0.080299000000000 1.333240000000000 0.025922000000000
H -0.629381000000000 2.461103000000000 0.007509000000000
H -1.015174000000000 0.578039000000000 -0.041582000000000
C 0.556643000000000 -3.945926000000000 0.022355000000000
H -0.526563000000000 -3.940124000000000 -0.054946000000000
H 0.908702000000000 -4.972404000000000 0.044448000000000
H 0.985228000000000 -3.435423000000000 -0.834563000000000
H 0.859003000000000 -3.440680000000000 0.934452000000000

h2s_ch4_150.wfx

