6
 h2s_dimer_cs, factor= 1.1, energy= -1.46
 S         0.041076       -2.135096        0.000000
 H        -1.272136       -2.360500        0.000000
 H        -0.130032       -0.810646        0.000000
 S        -0.054058        2.353687        0.000000
 H         0.866580        2.424674       -0.961210
 H         0.866580        2.424674        0.961210
