%nprocs=4
%mem=4GB
#p pbepbe aug-cc-pvtz output=wfx scf=(conver=6) int=(grid=ultrafine)

title

0 1
S 0.080299000000000 1.333240000000000 0.025922000000000
H -0.629381000000000 2.461103000000000 0.007509000000000
H -1.015174000000000 0.578039000000000 -0.041582000000000
C -0.019689000000000 -2.287139000000000 -0.001088000000000
H -1.102896000000000 -2.281337000000000 -0.078390000000000
H 0.332369000000000 -3.313616000000000 0.021004000000000
H 0.408895000000000 -1.776636000000000 -0.858007000000000
H 0.282670000000000 -1.781893000000000 0.911008000000000

h2s_ch4_095.wfx

