%nprocs=4
%mem=2GB
#p pbepbe aug-cc-pvtz output=wfx scf=(conver=6) int=(grid=ultrafine)

title

0 3
C	-1.199577 -.011126 -.000030
N	1.400715 .129862 .000015
H	-1.426660 -.512932 .933057
H	-1.419907 -.591382 -.888143
H	-1.520237 1.022806 -.045783
H	.188926 .126896 .001001
H	1.570338 -.887667 -.000053

bh22ts18.wfx


