%nprocs=4
%mem=4GB
#p pbepbe aug-cc-pvtz output=wfx scf=(conver=6) int=(grid=ultrafine)

title

0 1
n 0.000000000000000 0.000000000000000 -2.116357710106277
c 0.000000000000000 0.000000000000000 -0.966708180930427
c 0.000000000000000 0.000000000000000 0.489493193290700
h 0.511451077306824 0.885859251481259 0.864524232581999
h 0.511451077306824 -0.885859251481259 0.864524232581999
h -1.022902154613653 0.000000000000000 0.864524232581999

100.wfx

