%nprocs=4
%mem=4GB
#p pbepbe aug-cc-pvtz output=wfx scf=(conver=6) int=(grid=ultrafine)

title

0 1
c -0.342790416734413 0.121149345664600 0.000000000000000
o 1.079091237192575 0.198514945312793 0.000000000000000
h -0.728361320124075 -0.385127809904983 -0.890711639442348
h -0.728361320124075 -0.385127809904983 0.890711639442348
h -0.713346887893885 1.144490687589290 0.000000000000000
h 1.433768707683883 -0.693899358756707 0.000000000000000

33.wfx

