%nprocs=4
%mem=4GB
#p pbepbe aug-cc-pvtz output=wfx scf=(conver=6) int=(grid=ultrafine)

title

0 1
al 0.000000000000000 0.000000000000000 0.000000000000000
f 0.821890099717232 1.423555410948097 0.000000000000000
f 0.821890099717232 -1.423555410948097 0.000000000000000
f -1.643780199434463 0.000000000000000 0.000000000000000

59.wfx

