%nprocs=4
%mem=4GB
#p pbepbe aug-cc-pvtz output=wfx scf=(conver=6) int=(grid=ultrafine)

title

0 1
al 0.000000000000000 0.000000000000000 0.000000000000000
cl 1.045539689286418 1.810927863173855 0.000000000000000
cl 1.045539689286418 -1.810927863173855 0.000000000000000
cl -2.091079378572836 0.000000000000000 0.000000000000000

60.wfx

