%nprocs=4
%mem=2GB
#P pbepbe aug-cc-pvtz SCF=(Conver=5) int=(grid=ultrafine) output=wfx
 
title
 
0 1
     6      0.000000     1.393557     0.000000
     6      1.206855     0.696778     0.000000
     6      1.206855    -0.696778     0.000000
     6      0.000000    -1.393557     0.000000
     6     -1.206855    -0.696778     0.000000
     6     -1.206855     0.696778     0.000000
     1      0.000000     2.478749     0.000000
     1      2.146660     1.239375     0.000000
     1      2.146660    -1.239375     0.000000
     1      0.000000    -2.478749     0.000000
     1     -2.146660    -1.239375     0.000000
     1     -2.146660     1.239375     0.000000

benzene.wfx


