%nprocs=4
%mem=2GB
#P pbepbe aug-cc-pvtz SCF=(Conver=5) int=(grid=ultrafine) output=wfx
 
title
 
0 2
     6     -0.011306    -0.693173     0.000000
     6     -0.011306     0.794548     0.000000
     1      1.011529    -1.108146     0.000000
     1     -0.508737    -1.101453     0.886743
     1     -0.508737    -1.101453    -0.886743
     1      0.070808     1.351400     0.926269
     1      0.070808     1.351400    -0.926269

c2h5.wfx


