%nprocs=4
%mem=2GB
#P pbepbe aug-cc-pvtz SCF=(Conver=5) int=(grid=ultrafine) output=wfx
 
title
 
0 1
    27            0.000000    0.000000    1.303923
    27            0.000000    0.000000   -1.303923
     6            1.495408    0.000000    2.299021
     6           -1.495408    0.000000    2.299021
     6            0.000000    1.738895    0.913211
     6            0.000000   -1.738895    0.913211
     6            1.738895    0.000000   -0.913211
     6            0.000000   -1.495408   -2.299021
     6            0.000000    1.495408   -2.299021
     6           -1.738895    0.000000   -0.913211
     8            0.000000    2.872964    0.756822
     8           -2.396245    0.000000    3.000132
     8            2.396245    0.000000    3.000132
     8            0.000000   -2.872964    0.756822
     8            0.000000   -2.396245   -3.000132
     8            2.872964    0.000000   -0.756822
     8            0.000000    2.396245   -3.000132
     8           -2.872964    0.000000   -0.756822

Co2CO8.wfx


