%nprocs=4
%mem=2GB
#P pbepbe aug-cc-pvtz SCF=(Conver=5) int=(grid=ultrafine) output=wfx
 
title
 
0 1
    27           -0.079889    0.171893    0.000000
     1           -0.944450    1.370117    0.000000
     6            1.184630    1.436618    0.000000
     6            0.968490   -1.281897    0.000000
     6           -0.963437   -0.110469   -1.528700
     6           -0.963437   -0.110469    1.528700
     8           -1.562262   -0.230964    2.492671
     8            1.940172    2.291838    0.000000
     8            1.636072   -2.205030    0.000000
     8           -1.562262   -0.230964   -2.492671

CoHCO4.wfx


