%nprocs=4
%mem=2GB
#P pbepbe aug-cc-pvtz SCF=(Conver=5) int=(grid=ultrafine) output=wfx
 
title
 
0 2
     6            0.728860   -0.967002    0.000000
     6            1.173332    0.315236    0.000000
     6           -0.000301    1.188117    0.000000
     6           -1.158297    0.394816    0.000000
     6           -0.742940   -0.931598    0.000000
     1            1.325487   -1.868234    0.000000
     1            2.199108    0.654479    0.000000
     1            0.031259    2.270733    0.000000
     1           -2.177358    0.750931    0.000000
     1           -1.382414   -1.805331    0.000000

CP.wfx


