%nprocs=4
%mem=2GB
#P pbepbe aug-cc-pvtz SCF=(Conver=5) int=(grid=ultrafine) output=wfx
 
title
 
0 1
    24            0.000000    0.000000    0.069852
     6            1.386397    0.269435   -1.656584
     6            0.918612   -1.073236   -1.656934
     6            0.470143    1.332159   -1.656934
     1            2.449679    0.470237   -1.625902
     6           -0.459861   -1.335372   -1.656584
     1            1.626710   -1.891411   -1.626805
     6           -0.926536    1.065938   -1.656584
     1            0.824655    2.354478   -1.626805
     1           -0.817602   -2.356603   -1.625902
     1           -1.632077    1.886366   -1.625902
     6           -1.388755   -0.258923   -1.656934
     1           -2.451365   -0.463067   -1.626805
     6           -1.122237   -0.995817    1.148576
     6           -0.301284    1.469794    1.148576
     6            1.423522   -0.473977    1.148576
     8           -0.493774    2.403163    1.798492
     8            2.328087   -0.773960    1.798492
     8           -1.834313   -1.629203    1.798492

CrBzCO3.wfx


