%nprocs=4
%mem=2GB
#P pbepbe aug-cc-pvtz SCF=(Conver=5) int=(grid=ultrafine) output=wfx
 
title
 
0 1
     6            0.000000    1.877883    0.195571
     6            1.878563    0.000000   -0.267020
     6            0.000000   -1.877883    0.195571
     6           -1.878563    0.000000   -0.267020
     8           -2.992828    0.000000   -0.543579
     8            0.000000   -2.990340    0.479345
     8            2.992828    0.000000   -0.543579
     8            0.000000    2.990340    0.479345
    24            0.000000    0.000000   -0.037765

CrCO4.wfx


