%nprocs=4
%mem=2GB
#P pbepbe aug-cc-pvtz SCF=(Conver=5) int=(grid=ultrafine) output=wfx
 
title
 
0 1
    24           -0.015984    0.990216    0.000000
     6           -0.106809   -1.970464    1.224366
     6           -0.106809   -1.970464   -1.224366
     1            1.355234   -1.283227    0.000000
     6            0.339323   -3.435997    1.257107
     1           -1.199865   -1.904965    1.254308
     1            0.274840   -1.427984    2.092106
     6            0.339323   -3.435997   -1.257107
     1           -1.199865   -1.904965   -1.254308
     1            0.274840   -1.427984   -2.092106
     6           -0.118995   -4.185129    0.000000
     1           -0.055516   -3.908331    2.163084
     1            1.434773   -3.478371    1.335103
     1           -0.055516   -3.908331   -2.163084
     1            1.434773   -3.478371   -1.335103
     1            0.265854   -5.209786    0.000000
     1           -1.214685   -4.260214    0.000000
     7            0.337772   -1.247433    0.000000
     6            1.312669    1.156803   -1.351353
     6            1.312669    1.156803    1.351353
     6           -1.374004    0.880369    1.331643
     6           -1.374004    0.880369   -1.331643
     6           -0.210443    2.833682    0.000000
     8            2.116983    1.294849    2.159511
     8            2.116983    1.294849   -2.159511
     8           -0.325248    3.980436    0.000000
     8           -2.210094    0.869803   -2.117975
     8           -2.210094    0.869803    2.117975

CrPiperidineCO5.wfx


