%nprocs=4
%mem=2GB
#P pbepbe aug-cc-pvtz SCF=(Conver=5) int=(grid=ultrafine) output=wfx
 
title
 
0 1
    24            0.000000    0.000000   -0.894723
     6            1.353098   -1.341302   -0.914337
     6            1.353098    1.341302   -0.914337
     6           -1.353098    1.341302   -0.914337
     6           -1.353098   -1.341302   -0.914337
     6            0.000000    0.000000   -2.752057
     8            2.166176    2.149675   -0.962469
     8            2.166176   -2.149675   -0.962469
     8            0.000000    0.000000   -3.904172
     8           -2.166176   -2.149675   -0.962469
     8           -2.166176    2.149675   -0.962469
     6            0.000000   -1.147240    2.007807
     6            0.000000    1.147240    2.007807
     6            0.000000   -1.191958    3.394792
     1            0.000000   -2.063170    1.430316
     6            0.000000    1.191958    3.394792
     1            0.000000    2.063170    1.430316
     6            0.000000    0.000000    4.109776
     1            0.000000   -2.152846    3.895335
     1            0.000000    2.152846    3.895335
     1            0.000000    0.000000    5.194038
     7            0.000000    0.000000    1.304093

CrPyridineCO5.wfx


