%nprocs=4
%mem=2GB
#P pbepbe aug-cc-pvtz SCF=(Conver=5) int=(grid=ultrafine) output=wfx
 
title
 
0 1
    24           -0.000309   -0.696297    0.000000
     6           -1.338075   -0.657727    1.351449
     6            1.347394   -0.767164    1.351591
     6            1.347394   -0.767164   -1.351591
     6           -1.338075   -0.657727   -1.351449
     6           -0.082641   -2.552078    0.000000
     8           -2.150309   -0.672038    2.163602
     8            2.155428   -0.843015    2.161182
     8            2.155428   -0.843015   -2.161182
     8           -2.150309   -0.672038   -2.163602
     8           -0.135427   -3.702810    0.000000
     7            0.115747    1.460070    0.000000
     6            1.151117    2.300791    0.000000
     6            0.718655    3.637974    0.000000
     1            2.157116    1.912082    0.000000
     6           -0.658488    3.564722    0.000000
     1           -1.888230    1.825476    0.000000
     1            1.326743    4.526617    0.000000
     1           -1.422395    4.325101    0.000000
     7           -0.976431    2.252035    0.000000

CrPyrazoleCO5.wfx


