%nprocs=4
%mem=2GB
#P pbepbe aug-cc-pvtz SCF=(Conver=5) int=(grid=ultrafine) output=wfx
 
title
 
0 1
    26            0.000000    0.000000    0.000164
     6            0.000000    1.707962   -0.545369
     6           -1.708097    0.000000    0.545380
     6            0.000000   -1.707962   -0.545369
     6            1.708097    0.000000    0.545380
     8            0.000000    2.721427   -1.079200
     8           -2.721708    0.000000    1.078925
     8            0.000000   -2.721427   -1.079200
     8            2.721708    0.000000    1.078925

FeCO4.wfx


