%nprocs=4
%mem=2GB
#P pbepbe aug-cc-pvtz SCF=(Conver=5) int=(grid=ultrafine) output=wfx
 
title
 
0 1
     6            1.320620   -1.297886   -0.842943
     6            1.320620    1.297886   -0.842943
     6           -1.320620    1.297886   -0.842943
     6           -1.320620   -1.297886   -0.842943
     6            0.000000    0.000000   -2.811460
     8            2.130668    2.092590   -0.734284
     8            2.130668   -2.092590   -0.734284
     8            0.000000    0.000000   -3.956144
     8           -2.130668   -2.092590   -0.734284
     8           -2.130668    2.092590   -0.734284
     6            0.000000   -1.194196    1.897765
     6            0.000000    1.194196    1.897765
     6            0.000000   -1.197895    3.292735
     1            0.000000   -2.157062    1.394774
     6            0.000000    1.197895    3.292735
     1            0.000000    2.157062    1.394774
     6            0.000000    0.000000    3.999527
     1            0.000000   -2.145001    3.824051
     1            0.000000    2.145001    3.824051
     1            0.000000    0.000000    5.084407
     6            0.000000    0.000000    1.158552
    25            0.000000    0.000000   -0.979712

MnBzCO5.wfx


