%nprocs=4
%mem=2GB
#P pbepbe aug-cc-pvtz SCF=(Conver=5) int=(grid=ultrafine) output=wfx
 
title
 
0 1
     6            0.090126   -1.206677    1.516198
     6            0.549327    1.367146    1.258349
     6            0.051738    1.131056   -1.310304
     6            0.028896   -1.480292   -1.089544
     6            2.125288   -0.260711   -0.109279
     8            0.713995    2.235016    1.973775
     8           -0.072365   -1.910765    2.401553
     8            3.256844   -0.382910   -0.225722
     8           -0.109567   -2.354663   -1.811024
     8           -0.134393    1.866344   -2.165120
     6           -1.802592    0.246579    0.363563
    25            0.307010   -0.066787    0.075772
     8           -2.192156    1.120816    1.092613
     6           -2.804734   -0.646210   -0.362323
     1           -2.659709   -0.569697   -1.445154
     1           -2.641756   -1.693738   -0.087562
     1           -3.823975   -0.347993   -0.101998

MnCOCH3CO5.wfx


