%nprocs=4
%mem=2GB
#P pbepbe aug-cc-pvtz SCF=(Conver=5) int=(grid=ultrafine) output=wfx
 
title
 
0 1
    28            0.132003    0.047288   -0.049477
     6            0.564284    0.199860    1.666466
     6            0.242788   -1.540425   -0.837629
     6           -0.784117    1.349122   -0.837252
     8            0.750971    0.263291    2.791216
     8           -1.455126    2.146057   -1.304785
     8            0.224927   -2.581275   -1.306948

NiCO3.wfx


