%nprocs=4
%mem=2GB
#P pbepbe aug-cc-pvtz SCF=(Conver=5) int=(grid=ultrafine) output=wfx
 
title
 
0 1
     6           -0.634495   -0.973360    0.000000
     6            0.744284   -0.963114    0.000000
     6            1.086267    0.406632    0.000000
     7           -1.021902    0.325145    0.000000
     1           -1.959564    0.688530    0.000000
     1           -1.351353   -1.779103    0.000000
     1            1.402666   -1.816166    0.000000
     1            2.070043    0.852625    0.000000
     7            0.010480    1.189138    0.000000

pyrazole.wfx


