%nprocs=4
%mem=2GB
#P pbepbe aug-cc-pvtz SCF=(Conver=5) int=(grid=ultrafine) output=wfx
 
title
 
0 1
    22            0.000000    0.000000    0.000000
    35            0.000000    2.179164    0.770451
    35            1.887212   -1.089582    0.770451
    35           -1.887212   -1.089582    0.770451
    35            0.000000    0.000000   -2.311353

TiBr4.wfx


