%nprocs=4
%mem=2GB
#P pbepbe aug-cc-pvtz SCF=(Conver=5) int=(grid=ultrafine) output=wfx
 
title
 
0 1
    22            0.000000    0.000000    0.000000
     9            1.004326    1.004326    1.004326
     9           -1.004326   -1.004326    1.004326
     9            1.004326   -1.004326   -1.004326
     9           -1.004326    1.004326   -1.004326

TiF4.wfx


