%nprocs=4
%mem=2GB
#P pbepbe aug-cc-pvtz SCF=(Conver=5) int=(grid=ultrafine) output=wfx
 
title
 
0 1
    30            0.000000    0.000000   -0.925080
     6            0.000000    1.926636   -0.939456
     1            0.871431    2.269106   -1.514959
     1           -0.871431    2.269106   -1.514959
     6            0.000000   -1.926636   -0.939456
     1            0.871431   -2.269106   -1.514959
     1           -0.871431   -2.269106   -1.514959
     6            0.000000    2.610560    0.441712
     1            0.000000    3.705401    0.360151
     1           -0.880354    2.336911    1.034461
     1            0.880354    2.336911    1.034461
     6            0.000000   -2.610560    0.441712
     1            0.000000   -3.705401    0.360151
     1            0.880354   -2.336911    1.034461
     1           -0.880354   -2.336911    1.034461

ZnEt2.wfx


