%nprocs=4
%mem=2GB
#P pbepbe aug-cc-pvtz SCF=(Conver=5) int=(grid=ultrafine) output=wfx
 
title
 
0 1
    30            0.000000    0.000000   -0.614707
     6            0.000000    1.912332   -0.614974
     1            0.000000    2.318948    0.402930
     1            0.881444    2.319160   -1.123990
     1           -0.881444    2.319160   -1.123990
     6            0.000000   -1.912332   -0.614974
     1            0.881444   -2.319160   -1.123990
     1            0.000000   -2.318948    0.402930
     1           -0.881444   -2.319160   -1.123990

ZnMe2.wfx


