%nprocs=4
%mem=4GB
#p pbepbe aug-cc-pvtz output=wfx scf=(conver=6) int=(grid=ultrafine)

title

0 1
c 2.415845719736971 -0.811384853701553 -0.309305411724547
c 1.087459567061720 -0.967337864132454 0.421701619018328
c 0.000000000000000 0.000000000000000 -0.052953030548075
c 0.294009380850427 1.425436542730104 0.421701619018328
c -0.505242964317019 2.497876191766894 -0.309305411724547
c -1.381468947912142 -0.458098678597650 0.421701619018328
c -1.910602755419952 -1.686491338065341 -0.309305411724547
h 2.832244411562443 0.187336330485637 -0.189702637615412
h 3.154666352439953 -1.520292659797913 0.061648643801805
h 2.287379621670860 -0.991840903668592 -1.376674411869480
h 1.231430001752176 -0.820476208835663 1.496450367516884
h 0.742057312515998 -1.994607609969316 0.297017054207259
h 0.000000000000000 0.000000000000000 -1.150452639455985
h 1.356352204557192 1.639944288687518 0.297017054207259
h 0.094838239176341 1.476687768917529 1.496450367516884
h -0.284730391745914 2.476849312300098 -1.376674411869480
h -0.260721111647968 3.492167531575949 0.061648643801805
h -1.578360227033541 2.359127444896769 -0.189702637615412
h -1.326268240928516 -0.656211560081866 1.496450367516884
h -2.098409517073190 0.354663321281792 0.297017054207259
h -1.253884184528907 -2.546463775382401 -0.189702637615412
h -2.893945240791985 -1.971874871778035 0.061648643801805
h -2.002649229924946 -1.485008408631507 -1.376674411869480

h14.wfx

