%nprocs=4
%mem=4GB
#p pbepbe aug-cc-pvtz output=wfx scf=(conver=6) int=(grid=ultrafine)

title

0 1
c 0.296784788623886 0.128401789424110 -2.559754432388746
c 0.445545761412482 -0.637656826159116 -1.250647264978126
c 0.115138464449873 0.177493305217422 0.000000000000000
c 0.445545761412482 -0.637656826159116 1.250647264978126
c 0.296784788623886 0.128401789424110 2.559754432388746
c -1.339946969974126 0.633497178379225 0.000000000000000
h 0.891509731564780 1.042117551966300 -2.541275430443180
h 0.634399784860264 -0.470989213829828 -3.403863210427982
h -0.737642679309269 0.407296655433090 -2.750345636192083
h 1.472511191563943 -1.000341311715821 -1.164029458318035
h -0.194008513960788 -1.525357384872507 -1.266731185411277
h 0.756938860556183 1.066408294338257 0.000000000000000
h 1.472511191563943 -1.000341311715821 1.164029458318035
h -0.194008513960788 -1.525357384872507 1.266731185411277
h 0.891509731564780 1.042117551966300 2.541275430443180
h 0.634399784860264 -0.470989213829828 3.403863210427982
h -0.737642679309269 0.407296655433090 2.750345636192083
h -2.003916299448726 -0.233885230999955 0.000000000000000
h -1.573207092546900 1.234771966286315 -0.876553608665441
h -1.573207092546900 1.234771966286315 0.876553608665441

h4.wfx

