%nprocs=4
%mem=4GB
#p pbepbe aug-cc-pvtz output=wfx scf=(conver=6) int=(grid=ultrafine)

title

0 1
c -1.381902699378059 0.434251071360587 -1.247338791147829
c -0.896113512328792 -0.301437283271338 0.000000000000000
c 0.633949026642606 -0.424254052141156 0.000000000000000
c 1.425064420504696 0.878596898371349 0.000000000000000
c 2.927232376948993 0.620278591458434 0.000000000000000
c -1.381902699378059 0.434251071360587 1.247338791147829
c -1.482286396562400 -1.712101697139069 0.000000000000000
h -1.043622110041305 1.469828665748157 -1.261559764212462
h -1.019699658587824 -0.055252010603945 -2.153139062118222
h -2.472372306997658 0.441399722045484 -1.281994016830895
h 0.929283281101246 -1.011942089286386 -0.876079156926617
h 0.929283281101246 -1.011942089286386 0.876079156926617
h 1.161982870511105 1.474161432692724 -0.875320376562961
h 1.161982870511105 1.474161432692724 0.875320376562961
h 3.221439968435782 0.048152687342852 -0.879826211446320
h 3.494489128126122 1.549825229158681 0.000000000000000
h 3.221439968435782 0.048152687342852 0.879826211446320
h -1.043622110041305 1.469828665748157 1.261559764212462
h -2.472372306997658 0.441399722045484 1.281994016830895
h -1.019699658587824 -0.055252010603945 2.153139062118222
h -1.159808495351682 -2.266110108264886 -0.882954735785295
h -1.159808495351682 -2.266110108264886 0.882954735785295
h -2.572936742714402 -1.679886428506054 0.000000000000000

h9.wfx

