%nprocs=4
%mem=4GB
#p pbepbe aug-cc-pvtz output=wfx scf=(conver=6) int=(grid=ultrafine)

title

0 1
c 0.327243856866053 0.199955157257100 0.283345103687245
c 1.684042157436567 0.886323819139584 0.473484042105468
c -0.532277040261489 1.389350514257222 -0.170961230064119
c -0.172804321567331 -0.443437496309313 1.573771279173521
c 0.422448122138283 -0.869396060553432 -0.813116971361641
c -0.885985505723352 -1.631310079350308 -1.011154435839377
c -1.360754491368201 -2.249860714580024 0.299949355094711
c -1.493120282826617 -1.185807472925991 1.385282898518400
c 1.819708139992519 1.847036710878524 -0.718052899810617
c 0.365646006895177 2.181144365567954 -1.136628525322352
h 2.503981853602554 0.169715093998337 0.543440454435429
h 1.658546761271696 1.451064052262878 1.409548467411426
h -1.478985368242136 1.099533244710406 -0.624947802224296
h -0.766314576195779 1.997278049774598 0.707390128996980
h -0.271158902503598 0.328096079244055 2.342497782326340
h 0.583203126797238 -1.152167776018700 1.929681728725488
h 0.742309644826777 -0.417983767584009 -1.755010698001268
h 1.203768734227066 -1.581295511232215 -0.525430264224708
h -0.751693292696663 -2.404963119646313 -1.769092185301444
h -1.656133469542330 -0.955227384439535 -1.390724926177686
h -2.309426543178603 -2.768977820163273 0.155059694202187
h -0.633204046425346 -3.000159189420660 0.624520935543546
h -2.275727219555742 -0.476072942123504 1.104448821537375
h -1.804457255509146 -1.641108544403917 2.326879443884922
h 2.385084739387668 2.738593631131224 -0.453304097400466
h 2.352767723670870 1.367343093922263 -1.537610929159784
h 0.159545496959212 3.248862738661830 -1.087661979121523
h 0.183745951524629 1.873471327945193 -2.165603191633754

r10.wfx

