%nprocs=4
%mem=4GB
#p pbepbe aug-cc-pvtz output=wfx scf=(conver=6) int=(grid=ultrafine)

title

0 1
c 1.257589865281491 0.726069847250417 0.234965416240354
c -1.257589865281491 0.726069847250417 0.234965416240354
c 0.000000000000000 -1.452139694500829 0.234965416240354
c 1.257589865281491 -0.726069847250417 -0.234965416240354
c -1.257589865281491 -0.726069847250417 -0.234965416240354
c 0.000000000000000 1.452139694500829 -0.234965416240354
h 2.150148948637466 1.241389074293630 -0.122856262159449
h 1.295110568429475 0.747732435313085 1.328181279205232
h -2.150148948637466 1.241389074293630 -0.122856262159449
h -1.295110568429475 0.747732435313085 1.328181279205232
h 0.000000000000000 -1.495464870626175 1.328181279205232
h 0.000000000000000 -2.482778148587260 -0.122856262159449
h 1.295110568429475 -0.747732435313085 -1.328181279205232
h 2.150148948637466 -1.241389074293630 0.122856262159449
h -1.295110568429475 -0.747732435313085 -1.328181279205232
h -2.150148948637466 -1.241389074293630 0.122856262159449
h 0.000000000000000 2.482778148587260 0.122856262159449
h 0.000000000000000 1.495464870626175 -1.328181279205232

r2.wfx

