%nprocs=4
%mem=4GB
#p pbepbe aug-cc-pvtz output=wfx scf=(conver=6) int=(grid=ultrafine)

title

0 1
s 0.000000000000000 0.000000000000000 1.596895259710210
c 0.000000000000000 -0.738650818284508 -0.085298804012102
c 0.000000000000000 0.738650818284508 -0.085298804012102
h 0.912678352515444 -1.250597087317914 -0.356574412921497
h -0.912678352515444 -1.250597087317914 -0.356574412921497
h -0.912678352515444 1.250597087317914 -0.356574412921497
h 0.912678352515444 1.250597087317914 -0.356574412921497

117.wfx

