%nprocs=4
%mem=4GB
#p pbepbe aug-cc-pvtz output=wfx scf=(conver=6) int=(grid=ultrafine)

title

0 1
o 0.000000000000000 0.000000000000000 -1.193202784037612
c 0.000000000000000 0.000000000000000 0.006840576951561
h -0.938380317001665 0.000000000000000 0.593181103543031
h 0.938380317001665 0.000000000000000 0.593181103543031

32.wfx

