%nprocs=4
%mem=4GB
#p pbepbe aug-cc-pvtz output=wfx scf=(conver=6) int=(grid=ultrafine)

title

0 1
si 0.000000000000000 0.000000000000000 1.177833748016461
si 0.000000000000000 0.000000000000000 -1.177833748016461
h 1.207704271792848 -0.697268386421059 1.695865816604280
h 0.000000000000000 1.394536772842123 1.695865816604280
h -1.207704271792848 -0.697268386421059 1.695865816604280
h 1.207704271792848 0.697268386421059 -1.695865816604280
h 0.000000000000000 -1.394536772842123 -1.695865816604280
h -1.207704271792848 0.697268386421059 -1.695865816604280

52.wfx

