%nprocs=4
%mem=4GB
#p pbepbe aug-cc-pvtz output=wfx scf=(conver=6) int=(grid=ultrafine)

title

0 1
b 0.000000000000000 0.000000000000000 0.000000000000000
f 0.658366914712614 1.140324946304610 0.000000000000000
f 0.658366914712614 -1.140324946304610 0.000000000000000
f -1.316733829425223 0.000000000000000 0.000000000000000

57.wfx

