%nprocs=4
%mem=4GB
#p pbepbe aug-cc-pvtz output=wfx scf=(conver=6) int=(grid=ultrafine)

title

0 1
c 0.000000000000000 0.000000000000000 0.000000000000000
cl 1.033445790703822 -1.033445790703822 1.033445790703822
cl -1.033445790703822 1.033445790703822 1.033445790703822
cl -1.033445790703822 -1.033445790703822 -1.033445790703822
cl 1.033445790703822 1.033445790703822 -1.033445790703822

62.wfx

