%nprocs=4
%mem=4GB
#p pbepbe aug-cc-pvtz output=wfx scf=(conver=6) int=(grid=ultrafine)

title

0 1
si 0.000000000000000 0.000000000000000 0.000000000000000
f 0.910201790364566 -0.910201790364566 0.910201790364566
f -0.910201790364566 0.910201790364566 0.910201790364566
f -0.910201790364566 -0.910201790364566 -0.910201790364566
f 0.910201790364566 0.910201790364566 -0.910201790364566

66.wfx

