%nprocs=4
%mem=4GB
#p pbepbe aug-cc-pvtz output=wfx scf=(conver=6) int=(grid=ultrafine)

title

0 2
si 0.000000000000000 0.000000000000000 -0.341223949128258
h 0.707740832302442 -1.225843080138916 0.113741316376089
h 0.707740832302442 1.225843080138916 0.113741316376089
h -1.415481664604889 0.000000000000000 0.113741316376089

EA_16n.wfx

