%nprocs=4
%mem=4GB
#p pbepbe aug-cc-pvtz output=wfx scf=(conver=6) int=(grid=ultrafine)

title

-1 1
si 0.000000000000000 0.000000000000000 -0.621090279472637
h 0.654378453868454 -1.133416729478527 0.207030093157549
h 0.654378453868454 1.133416729478527 0.207030093157549
h -1.308756907736908 0.000000000000000 0.207030093157549

EA_16.wfx

