%nprocs=4
%mem=4GB
#p pbepbe aug-cc-pvtz output=wfx scf=(conver=6) int=(grid=ultrafine)

title

-1 1
c 0.000000000000000 0.000000000000000 -0.343816361409300
h 0.506980317438229 -0.878115668240409 0.114605453803102
h 0.506980317438229 0.878115668240409 0.114605453803102
h -1.013960634876458 0.000000000000000 0.114605453803102

EA_10.wfx

