%nprocs=4
%mem=4GB
#p pbepbe aug-cc-pvtz output=wfx scf=(conver=6) int=(grid=ultrafine)

title

0 1
b 0.000000000000000 0.000000000000000 1.950874353114503
p 0.000000000000000 0.000000000000000 -0.029066907871551
c 0.851900631993642 -1.475535177613024 -0.689674817475480
c 0.851900631993642 1.475535177613024 -0.689674817475480
c -1.703801263987283 0.000000000000000 -0.689674817475480
cl -0.896904548923893 1.553484248275822 2.463464201607199
cl 1.793809097847780 0.000000000000000 2.463464201607199
cl -0.896904548923893 -1.553484248275822 2.463464201607199
h -2.218341286263649 -0.886681691608325 -0.316366836842791
h -2.218341286263649 0.886681691608325 -0.316366836842791
h -1.698418495384821 0.000000000000000 -1.781658192193776
h 0.341281773128455 2.364480753972329 -0.316366836842791
h 1.877059513135195 1.477799062364005 -0.316366836842791
h 0.849209247692408 1.470873563260600 -1.781658192193776
h 0.849209247692408 -1.470873563260600 -1.781658192193776
h 1.877059513135195 -1.477799062364005 -0.316366836842791
h 0.341281773128455 -2.364480753972329 -0.316366836842791

BCl3PMe3.wfx

