%nprocs=4
%mem=4GB
#p pbepbe aug-cc-pvtz output=wfx scf=(conver=6) int=(grid=ultrafine)

title

0 1
b 0.000000000000000 0.000000000000000 0.000000000000000
h 0.594574441817106 -1.029833142109131 0.000000000000000
h 0.594574441817106 1.029833142109131 0.000000000000000
h -1.189148883634213 0.000000000000000 0.000000000000000

BH3.wfx

