%nprocs=4
%mem=4GB
#p pbepbe aug-cc-pvtz output=wfx scf=(conver=6) int=(grid=ultrafine)

title

0 1
n 0.000000000000000 0.000000000000000 0.661353707371326
h 0.000000000000000 0.000000000000000 1.652361900829309
b 0.000000000000000 0.000000000000000 -0.571410019289385
h 0.000000000000000 0.000000000000000 -1.742305588911256

nh-bh.wfx

