%nprocs=4
%mem=4GB
#p pbepbe aug-cc-pvtz output=wfx scf=(conver=6) int=(grid=ultrafine)

title

0 1
p 0.000000000000000 0.000000000000000 -0.575769495824263
h 0.596692913541290 -1.033502442769821 0.191923165274752
h 0.596692913541290 1.033502442769821 0.191923165274752
h -1.193385827082586 0.000000000000000 0.191923165274752

PH3.wfx

