%nprocs=4
%mem=4GB
#p pbepbe aug-cc-pvtz output=wfx scf=(conver=6) int=(grid=ultrafine)

title

0 1
p 0.000000000000000 0.000000000000000 0.579213552895528
h -0.597089606707133 1.034189535488070 -0.193071184298508
h -0.597089606707133 -1.034189535488070 -0.193071184298508
h 1.194179213414261 0.000000000000000 -0.193071184298508

20.wfx

