%nprocs=4
%mem=4GB
#p pbepbe aug-cc-pvtz output=wfx scf=(conver=6) int=(grid=ultrafine)

title

1 2
c 0.621681986385079 0.007276937769766 -0.000001525541336
c -0.621681770132224 -0.007276960603530 0.000001526026761
h -1.700722657098466 -0.020701236066177 0.000002875543014
h 1.700722281218116 0.020701284469482 -0.000002928522109

IP_71.wfx

