%nprocs=4
%mem=4GB
#p pbepbe aug-cc-pvtz output=wfx scf=(conver=6) int=(grid=ultrafine)

title

1 2
c 0.694189829261172 0.000000002175358 -0.000000064636599
c -0.694189829226654 0.000000000000106 0.000000061774232
h -1.256636299597315 -0.903393019349682 0.230203319596975
h -1.256636112612554 0.903393024616297 -0.230203750039798
h 1.256636127803650 0.903393005535305 0.230203767311348
h 1.256636283994885 -0.903393036725173 -0.230203302760038

IP_72.wfx

