%nprocs=4
%mem=2GB
#p b3lyp aug-cc-pvtz output=wfx scf=(conver=6) int=(grid=ultrafine)

title

0 1
 O        4.422945000    -0.026001000    -0.007200000
 H        4.446575000    -0.955128000     0.320950000
 H        4.445532000    -0.084110000    -0.991960000
 O        2.201771000     1.306708000     0.969980000
 H        2.989729000     0.844404000     0.598680000
 H        2.274831000     1.268852000     1.952940000

01a_water_di13.wfx

