%nprocs=4
%mem=2GB
#p b3lyp aug-cc-pvtz output=wfx scf=(conver=6) int=(grid=ultrafine)

title

0 1
 O       -0.017366000    -2.585019000     0.919270000
 H       -0.039968000    -1.654902000     0.595340000
 H        0.035574000    -2.525985000     1.902570000
 O       -0.002242000     0.021748000    -2.688650000
 H       -0.085097000     0.077817000    -1.706600000
 H       -0.801156000     0.454510000    -3.074410000

01b_water_di23.wfx

