%nprocs=4
%mem=2GB
#p b3lyp aug-cc-pvtz output=wfx scf=(conver=6) int=(grid=ultrafine)

title

0 1
 O       -0.002242000     0.021748000    -2.688650000
 H       -0.085097000     0.077817000    -1.706600000
 H       -0.801156000     0.454510000    -3.074410000
 O       -0.084889000     0.056804000     0.055200000
 H        0.710375000     0.517729000     0.413970000
 H       -0.890958000     0.498588000     0.414270000

01b_water_di23.wfx

