%nprocs=4
%mem=2GB
#p b3lyp aug-cc-pvtz output=wfx scf=(conver=6) int=(grid=ultrafine)

title

0 1
3LYP-D*/TZP geometry           
 O       -0.084889000     0.056804000     0.055200000
 H        0.710375000     0.517729000     0.413970000
 H       -0.890958000     0.498588000     0.414270000
 O       -0.017366000    -2.585019000     0.919270000
 H       -0.039968000    -1.654902000     0.595340000
 H        0.035574000    -2.525985000     1.902570000

01b_water_di12.wfx

