%nprocs=4
%mem=2GB
#p b3lyp aug-cc-pvtz output=wfx scf=(conver=6) int=(grid=ultrafine)

title

0 1
 O       -0.014443000    -1.614719000    -0.009940000
 H       -0.027039000    -2.101017000     0.820610000
 H        0.810370000    -1.091722000    -0.026820000
 O        1.602083000     0.679871000     0.031170000
 H        2.064562000     1.065746000    -0.719440000
 H        0.719298000     1.097655000     0.053930000

01c_water_di23.wfx

