%nprocs=4
%mem=2GB
#p b3lyp aug-cc-pvtz output=wfx scf=(conver=6) int=(grid=ultrafine)

title

0 1
3LYP-D*/TZP geometry           
 O       -1.206108000     0.893312000     0.066090000
 H       -1.872043000     1.147949000    -0.579620000
 H       -1.070581000    -0.072576000    -0.024080000
 O       -0.014443000    -1.614719000    -0.009940000
 H       -0.027039000    -2.101017000     0.820610000
 H        0.810370000    -1.091722000    -0.026820000

01c_water_di12.wfx

