%nprocs=4
%mem=2GB
#p b3lyp aug-cc-pvtz output=wfx scf=(conver=6) int=(grid=ultrafine)

title

0 1
 O        1.602083000     0.679871000     0.031170000
 H        2.064562000     1.065746000    -0.719440000
 H        0.719298000     1.097655000     0.053930000
 O       -1.206108000     0.893312000     0.066090000
 H       -1.872043000     1.147949000    -0.579620000
 H       -1.070581000    -0.072576000    -0.024080000

01c_water_di13.wfx

