%nprocs=4
%mem=2GB
#p b3lyp aug-cc-pvtz output=wfx scf=(conver=6) int=(grid=ultrafine)

title

0 1
 of Formaldehyde #2, B3LYP-D*/TZP geometry            
 O       11.037562000    13.610505000     5.075480000
 C       10.942196000    13.265930000     3.917840000
 H       10.141424000    12.588583000     3.586760000
 H       11.641310000    13.614613000     3.146700000
 O        9.239955000    15.408112000     2.838480000
 C        8.895380000    15.312746000     1.680840000
 H        8.218033000    14.511974000     1.349760000
 H        9.244063000    16.011860000     0.909700000

02b_formaldehyde_di13.wfx

