%nprocs=4
%mem=2GB
#p b3lyp aug-cc-pvtz output=wfx scf=(conver=6) int=(grid=ultrafine)

title

0 1
 O        9.239955000     6.667012000     7.312480000
 C        8.895380000     6.571646000     6.154840000
 H        8.218033000     5.770874000     5.823760000
 H        9.244063000     7.270760000     5.383700000
 O       10.815188000     9.239955000     1.635520000
 C       10.910554000     8.895380000     2.793160000
 H       11.711326000     8.218033000     3.124240000
 H       10.211440000     9.244063000     3.564300000

02c_formaldehyde_di13.wfx

