%nprocs=4
%mem=2GB
#p b3lyp aug-cc-pvtz output=wfx scf=(conver=6) int=(grid=ultrafine)

title

0 1
 O       10.815188000     9.239955000     6.109520000
 C       10.910554000     8.895380000     7.267160000
 H       11.711326000     8.218033000     7.598240000
 H       10.211440000     9.244063000     8.038300000

02c_formaldehyde_mon2.wfx

