%nprocs=4
%mem=2GB
#p b3lyp aug-cc-pvtz output=wfx scf=(conver=6) int=(grid=ultrafine)

title

0 1
 of Formaldehyde #3, B3LYP-D*/TZP geometry            
 O       10.815188000     9.239955000     6.109520000
 C       10.910554000     8.895380000     7.267160000
 H       11.711326000     8.218033000     7.598240000
 H       10.211440000     9.244063000     8.038300000
 O        9.239955000     6.667012000     7.312480000
 C        8.895380000     6.571646000     6.154840000
 H        8.218033000     5.770874000     5.823760000
 H        9.244063000     7.270760000     5.383700000

02c_formaldehyde_di23.wfx

