%nprocs=4
%mem=2GB
#p b3lyp aug-cc-pvtz output=wfx scf=(conver=6) int=(grid=ultrafine)

title

0 1
11 12] of Methanol/Ethyne #1, B3LYP-D*/TZP geometry       
 O        3.211523000    12.095308000    13.092200000
 H        4.065726000    12.592587000    13.073240000
 C        3.425896000    10.840226000    13.751500000
 H        4.053811000    10.192498000    13.135250000
 H        2.456381000    10.363499000    13.883410000
 H        3.894402000    10.968294000    14.729260000
 O        0.929023000    13.503692000    13.237800000
 H        1.783226000    13.006413000    13.256760000
 C        1.143396000    14.758774000    12.578500000
 H        1.771311000    15.406502000    13.194750000
 H        0.173881000    15.235501000    12.446590000
 H        1.611902000    14.630706000    11.600740000

03a_methanol_ethyne_di12.wfx

