%nprocs=4
%mem=2GB
#p b3lyp aug-cc-pvtz output=wfx scf=(conver=6) int=(grid=ultrafine)

title

0 1
 O        3.211523000    12.095308000    13.092200000
 H        4.065726000    12.592587000    13.073240000
 C        3.425896000    10.840226000    13.751500000
 H        4.053811000    10.192498000    13.135250000
 H        2.456381000    10.363499000    13.883410000
 H        3.894402000    10.968294000    14.729260000
 O        7.776523000    12.095308000    13.092200000
 H        8.630726000    12.592587000    13.073240000
 C        7.990896000    10.840226000    13.751500000
 H        8.618811000    10.192498000    13.135250000
 H        7.021381000    10.363499000    13.883410000
 H        8.459402000    10.968294000    14.729260000

03b_methanol_ethyne_di12.wfx

