%nprocs=4
%mem=2GB
#p b3lyp aug-cc-pvtz output=wfx scf=(conver=6) int=(grid=ultrafine)

title

0 1
 O        3.211523000     4.781308000    13.092200000
 H        4.065726000     5.278587000    13.073240000
 C        3.425896000     3.526226000    13.751500000
 H        4.053811000     2.878498000    13.135250000
 H        2.456381000     3.049499000    13.883410000
 H        3.894402000     3.654294000    14.729260000
 O        0.929023000     6.189692000    13.237800000
 H        1.783226000     5.692413000    13.256760000
 C        1.143396000     7.444774000    12.578500000
 H        1.771311000     8.092502000    13.194750000
 H        0.173881000     7.921501000    12.446590000
 H        1.611902000     7.316706000    11.600740000

03c_methanol_ethyne_di12.wfx

