%nprocs=4
%mem=2GB
#p b3lyp aug-cc-pvtz output=wfx scf=(conver=6) int=(grid=ultrafine)

title

0 1
6 3] of Acetonitrile #1, B3LYP-D*/TZP geometry     
 C        6.784852000    12.779714000     5.904180000
 C        6.054437000    13.639463000     4.989550000
 H        7.410856000    13.384664000     6.561600000
 H        6.088752000    12.192378000     6.503600000
 H        7.414911000    12.100499000     5.330030000
 N        5.480856000    14.317024000     4.255200000
 C        4.104605000    12.030286000     1.944720000
 C        4.835020000    11.170537000     2.859350000
 H        3.478601000    11.425336000     1.287300000
 H        4.800705000    12.617622000     1.345300000
 H        3.474547000    12.709501000     2.518870000
 N        5.408601000    10.492976000     3.593700000

04a_acetonitrile_di13.wfx

