%nprocs=4
%mem=2GB
#p b3lyp aug-cc-pvtz output=wfx scf=(conver=6) int=(grid=ultrafine)

title

0 1
 C        4.104605000    12.030286000     1.944720000
 C        4.835020000    11.170537000     2.859350000
 H        3.478601000    11.425336000     1.287300000
 H        4.800705000    12.617622000     1.345300000
 H        3.474547000    12.709501000     2.518870000
 N        5.408601000    10.492976000     3.593700000

04a_acetonitrile_mon1.wfx

