%nprocs=4
%mem=2GB
#p b3lyp aug-cc-pvtz output=wfx scf=(conver=6) int=(grid=ultrafine)

title

0 1
 N        0.000000000     8.230624000    11.114910000
 C        0.000000000     9.096977000    11.874670000
 C        0.000000000    10.196003000    12.822920000
 H        0.000000000    11.143066000    12.283290000
 H       -0.889258000    10.140701000    13.450410000
 H        0.889258000    10.140701000    13.450410000

04c_acetonitrile_mon3.wfx

