%nprocs=4
%mem=2GB
#p b3lyp aug-cc-pvtz output=wfx scf=(conver=6) int=(grid=ultrafine)

title

0 1
 C        3.283816000     8.977850000    13.841995000
 N        4.461122000     9.893441000    13.834849000
 H        3.069727000     8.738474000    14.875425000
 H        2.456394000     9.533753000    13.405075000
 H        3.519371000     8.109659000    13.241231000
 O        5.252561000     9.820967000    12.899504000
 O        4.566896000    10.694147000    14.750883000

05a_nitromethane_mon2.wfx

