%nprocs=4
%mem=2GB
#p b3lyp aug-cc-pvtz output=wfx scf=(conver=6) int=(grid=ultrafine)

title

0 1
 C        4.493684000     9.733150000     9.588495000
 N        3.316378000     8.817559000     9.581349000
 H        4.707773000     9.972526000    10.621925000
 H        5.321106000     9.177247000     9.151575000
 H        4.258129000    10.601341000     8.987731000
 O        2.524939000     8.890033000     8.646004000
 O        3.210604000     8.016853000    10.497383000
 C        5.876316000    12.851650000    11.679005000
 N        7.053622000    11.936059000    11.686151000
 H        5.662227000    13.091026000    10.645575000
 H        5.048894000    12.295747000    12.115925000
 H        6.111871000    13.719841000    12.279769000
 O        7.845061000    12.008533000    12.621496000
 O        7.159396000    11.135353000    10.770117000

05a_nitromethane_di13.wfx

