%nprocs=4
%mem=2GB
#p b3lyp aug-cc-pvtz output=wfx scf=(conver=6) int=(grid=ultrafine)

title

0 1
14 10 11] of Nitromethane #1, B3LYP-D*/TZP geometry       
 C        3.283816000     2.740850000     5.334995000
 N        4.461122000     3.656441000     5.327849000
 H        3.069727000     2.501474000     6.368425000
 H        2.456394000     3.296753000     4.898075000
 H        3.519371000     1.872659000     4.734231000
 O        5.252561000     3.583967000     4.392504000
 O        4.566896000     4.457147000     6.243883000
 C        4.493684000     3.496150000     9.588495000
 N        3.316378000     2.580559000     9.581349000
 H        4.707773000     3.735526000    10.621925000
 H        5.321106000     2.940247000     9.151575000
 H        4.258129000     4.364341000     8.987731000
 O        2.524939000     2.653033000     8.646004000
 O        3.210604000     1.779853000    10.497383000

05b_nitromethane_di12.wfx

