%nprocs=4
%mem=2GB
#p b3lyp aug-cc-pvtz output=wfx scf=(conver=6) int=(grid=ultrafine)

title

0 1
 C        7.086184000    -0.377650000     7.425505000
 N        5.908878000     0.537941000     7.432651000
 H        7.300273000    -0.617026000     6.392075000
 H        7.913606000     0.178253000     7.862425000
 H        6.850629000    -1.245841000     8.026269000
 O        5.117439000     0.465467000     8.367996000
 O        5.803104000     1.338647000     6.516617000
 C        3.283816000     2.740850000     5.334995000
 N        4.461122000     3.656441000     5.327849000
 H        3.069727000     2.501474000     6.368425000
 H        2.456394000     3.296753000     4.898075000
 H        3.519371000     1.872659000     4.734231000
 O        5.252561000     3.583967000     4.392504000
 O        4.566896000     4.457147000     6.243883000

05b_nitromethane_di23.wfx

