%nprocs=4
%mem=2GB
#p b3lyp aug-cc-pvtz output=wfx scf=(conver=6) int=(grid=ultrafine)

title

0 1
C             0.691316000     6.614650000    11.679005000
N             1.868622000     5.699059000    11.686151000
O             2.660061000     5.771533000    12.621496000
O             1.974396000     4.898353000    10.770117000
H             0.477227000     6.854026000    10.645575000
H            -0.136106000     6.058747000    12.115925000
H             0.926871000     7.482841000    12.279769000
C             4.493684000     3.496150000     9.588495000
N             3.316378000     2.580559000     9.581349000
O             2.524939000     2.653033000     8.646004000
O             3.210604000     1.779853000    10.497383000
H             4.707773000     3.735526000    10.621925000
H             5.321106000     2.940247000     9.151575000
H             4.258129000     4.364341000     8.987731000
C             7.086184000    -0.377650000     7.425505000
N             5.908878000     0.537941000     7.432651000
O             5.117439000     0.465467000     8.367996000
O             5.803104000     1.338647000     6.516617000
H             7.300273000    -0.617026000     6.392075000
H             7.913606000     0.178253000     7.862425000
H             6.850629000    -1.245841000     8.026269000

05c_nitromethane.wfx

