%nprocs=4
%mem=2GB
#p b3lyp aug-cc-pvtz output=wfx scf=(conver=6) int=(grid=ultrafine)

title

0 1
 O        4.919921000     3.501003000     5.792830000
 H        4.228836000     3.730734000     5.101210000
 C        4.411108000     2.756810000     6.760040000
 O        3.244878000     2.374710000     6.735720000
 C        5.385992000     2.434653000     7.848070000
 H        4.892304000     1.876253000     8.636430000
 H        6.206877000     1.846360000     7.437650000
 H        5.815635000     3.352282000     8.245480000

06a_acetic_acid_mon2.wfx

