%nprocs=4
%mem=2GB
#p b3lyp aug-cc-pvtz output=wfx scf=(conver=6) int=(grid=ultrafine)

title

0 1
 14 15 16] of Acetic acid #1, B3LYP-D*/TZP geometry   
 O        4.919921000     3.501003000     0.030830000
 H        4.228836000     3.730734000    -0.660790000
 C        4.411108000     2.756810000     0.998040000
 O        3.244878000     2.374710000     0.973720000
 C        5.385992000     2.434653000     2.086070000
 H        4.892304000     1.876253000     2.874430000
 H        6.206877000     1.846360000     1.675650000
 H        5.815635000     3.352282000     2.483480000
 O        4.919921000     3.501003000     5.792830000
 H        4.228836000     3.730734000     5.101210000
 C        4.411108000     2.756810000     6.760040000
 O        3.244878000     2.374710000     6.735720000
 C        5.385992000     2.434653000     7.848070000
 H        4.892304000     1.876253000     8.636430000
 H        6.206877000     1.846360000     7.437650000
 H        5.815635000     3.352282000     8.245480000

06a_acetic_acid_di12.wfx

