%nprocs=4
%mem=2GB
#p b3lyp aug-cc-pvtz output=wfx scf=(conver=6) int=(grid=ultrafine)

title

0 1
 O        1.655579000     1.539503000     2.911830000
 H        2.346664000     1.769234000     2.220210000
 C        2.164392000     0.795310000     3.879040000
 O        3.330622000     0.413210000     3.854720000
 C        1.189508000     0.473153000     4.967070000
 H        1.683196000    -0.085247000     5.755430000
 H        0.368623000    -0.115140000     4.556650000
 H        0.759865000     1.390782000     5.364480000

06a_acetic_acid_mon3.wfx

