%nprocs=4
%mem=2GB
#p b3lyp aug-cc-pvtz output=wfx scf=(conver=6) int=(grid=ultrafine)

title

0 1
 O        1.655579000     1.539503000     2.911830000
 H        2.346664000     1.769234000     2.220210000
 C        2.164392000     0.795310000     3.879040000
 O        3.330622000     0.413210000     3.854720000
 C        1.189508000     0.473153000     4.967070000
 H        1.683196000    -0.085247000     5.755430000
 H        0.368623000    -0.115140000     4.556650000
 H        0.759865000     1.390782000     5.364480000
 O        4.919921000     3.501003000     0.030830000
 H        4.228836000     3.730734000    -0.660790000
 C        4.411108000     2.756810000     0.998040000
 O        3.244878000     2.374710000     0.973720000
 C        5.385992000     2.434653000     2.086070000
 H        4.892304000     1.876253000     2.874430000
 H        6.206877000     1.846360000     1.675650000
 H        5.815635000     3.352282000     2.483480000

06a_acetic_acid_di13.wfx

