%nprocs=4
%mem=2GB
#p b3lyp aug-cc-pvtz output=wfx scf=(conver=6) int=(grid=ultrafine)

title

0 1
 O        1.069844000    17.887053000     8.034210000
 C        0.268685000    17.401890000     8.967150000
 H        1.319178000    17.191358000     7.354980000
 O       -0.114510000    16.236406000     8.947380000
 C       -0.138072000    18.413124000     9.992290000
 H       -0.928157000    19.031693000     9.562340000
 H        0.693086000    19.071689000    10.232330000
 H       -0.525179000    17.924444000    10.880180000
 O        5.327155000    17.887053000     2.402170000
 C        4.525997000    17.401890000     3.335120000
 H        5.576489000    17.191358000     1.722950000
 O        4.142801000    16.236406000     3.315350000
 C        4.119240000    18.413124000     4.360260000
 H        3.329155000    19.031693000     3.930310000
 H        4.950397000    19.071689000     4.600300000
 H        3.732132000    17.924444000     5.248150000

06b_acetic_acid_di12.wfx

