%nprocs=4
%mem=2GB
#p b3lyp aug-cc-pvtz output=wfx scf=(conver=6) int=(grid=ultrafine)

title

0 1
O   5.327155  17.887053    2.40217
C   4.525997  17.401890    3.33512
O   4.142801  16.236406    3.31535
C   4.119240  18.413124    4.36026
H   5.576489  17.191358    1.72295
H   3.329155  19.031693    3.93031
H   4.950397  19.071689    4.60030
H   3.732132  17.924444    5.24815
O   3.198500  14.682947    5.21819
C   2.397341  15.168110    6.15114
O   2.014145  16.333594    6.13137
C   1.990584  14.156876    7.17628
H   3.447834  15.378642    4.53897
H   1.200499  13.538307    6.74633
H   2.821742  13.498311    7.41631
H   1.603476  14.645556    8.06417
O   7.143200  14.682947    5.21819
C   6.342041  15.168110    6.15114
O   5.958845  16.333594    6.13137
C   5.935284  14.156876    7.17628
H   7.392534  15.378642    4.53897
H   5.145199  13.538307    6.74633
H   6.766442  13.498311    7.41631
H   5.548176  14.645556    8.06417

06c_acetic_acid.wfx

