%nprocs=4
%mem=2GB
#p b3lyp aug-cc-pvtz output=wfx scf=(conver=6) int=(grid=ultrafine)

title

0 1
 O        3.198500000    14.682947000     5.218190000
 C        2.397341000    15.168110000     6.151140000
 H        3.447834000    15.378642000     4.538970000
 O        2.014145000    16.333594000     6.131370000
 C        1.990584000    14.156876000     7.176280000
 H        1.200499000    13.538307000     6.746330000
 H        2.821742000    13.498311000     7.416310000
 H        1.603476000    14.645556000     8.064170000

06c_acetic_acid_mon2.wfx

