%nprocs=4
%mem=2GB
#p b3lyp aug-cc-pvtz output=wfx scf=(conver=6) int=(grid=ultrafine)

title

0 1
 O        7.143200000    14.682947000     5.218190000
 C        6.342041000    15.168110000     6.151140000
 H        7.392534000    15.378642000     4.538970000
 O        5.958845000    16.333594000     6.131370000
 C        5.935284000    14.156876000     7.176280000
 H        5.145199000    13.538307000     6.746330000
 H        6.766442000    13.498311000     7.416310000
 H        5.548176000    14.645556000     8.064170000
 O        5.327155000    17.887053000     2.402170000
 C        4.525997000    17.401890000     3.335120000
 H        5.576489000    17.191358000     1.722950000
 O        4.142801000    16.236406000     3.315350000
 C        4.119240000    18.413124000     4.360260000
 H        3.329155000    19.031693000     3.930310000
 H        4.950397000    19.071689000     4.600300000
 H        3.732132000    17.924444000     5.248150000

06c_acetic_acid_di23.wfx

