%nprocs=4
%mem=2GB
#p b3lyp aug-cc-pvtz output=wfx scf=(conver=6) int=(grid=ultrafine)

title

0 1
 C       -1.599714000     6.025105000     4.897590000
 O       -0.967931000     6.644650000     4.061490000
 O       -1.098297000     5.340779000     5.888300000
 C       -3.137243000     6.004895000     4.888200000
 H       -0.099127000     5.378673000     5.850630000
 O       -3.769026000     5.385350000     5.724290000
 O       -3.638660000     6.689221000     3.897480000
 H       -4.637830000     6.651327000     3.935160000

07a_oxalic_acid_mon1.wfx

