%nprocs=4
%mem=2GB
#p b3lyp aug-cc-pvtz output=wfx scf=(conver=6) int=(grid=ultrafine)

title

0 1
 13 10 14 15 16] of Oxalic acid #1, B3LYP-D*/TZP geometry         
 C       -1.599714000     6.025105000     4.897590000
 O       -0.967931000     6.644650000     4.061490000
 O       -1.098297000     5.340779000     5.888300000
 C       -3.137243000     6.004895000     4.888200000
 H       -0.099127000     5.378673000     5.850630000
 O       -3.769026000     5.385350000     5.724290000
 O       -3.638660000     6.689221000     3.897480000
 H       -4.637830000     6.651327000     3.935160000
 C       -1.953003000     3.017605000     2.441750000
 O       -2.584787000     3.637150000     3.277850000
 O       -2.454420000     2.333279000     1.451040000
 C       -0.415475000     2.997395000     2.451140000
 H       -3.453591000     2.371173000     1.488710000
 O        0.216308000     2.377850000     1.615050000
 O        0.085942000     3.681721000     3.441860000
 H        1.085112000     3.643827000     3.404180000

07a_oxalic_acid_di12.wfx

