%nprocs=4
%mem=2GB
#p b3lyp aug-cc-pvtz output=wfx scf=(conver=6) int=(grid=ultrafine)

title

0 1
17 19 18 23 20 21 22 24] of Oxalic acid #2, B3LYP-D*/TZP geometry         
 O       -1.061967000    -1.393698000    11.718370000
 C       -0.393630000    -0.508179000    12.208750000
 O       -0.219281000    -0.272646000    13.481000000
 C        0.393630000     0.508179000    11.348450000
 H       -0.688540000    -0.914709000    14.073460000
 O        1.061967000     1.393698000    11.838830000
 O        0.219281000     0.272646000    10.076200000
 H        0.688540000     0.914709000     9.483740000
 O        1.061967000     1.653302000     7.912630000
 C        0.393630000     2.538821000     7.422250000
 O        0.219281000     2.774354000     6.150000000
 C       -0.393630000     3.555179000     8.282550000
 H        0.688540000     2.132291000     5.557540000
 O       -1.061967000     4.440698000     7.792170000
 O       -0.219281000     3.319646000     9.554800000
 H       -0.688540000     3.961709000    10.147260000

07b_oxalic_acid_di23.wfx

