%nprocs=4
%mem=2GB
#p b3lyp aug-cc-pvtz output=wfx scf=(conver=6) int=(grid=ultrafine)

title

0 1
 O       15.336533000     4.440698000    11.838830000
 C       16.004870000     3.555179000    11.348450000
 O       16.179219000     3.319646000    10.076200000
 C       16.792130000     2.538821000    12.208750000
 H       15.709960000     3.961709000     9.483740000
 O       17.460467000     1.653302000    11.718370000
 O       16.617781000     2.774354000    13.481000000
 H       17.087040000     2.132291000    14.073460000

07c_oxalic_acid_mon2.wfx

