%nprocs=4
%mem=2GB
#p b3lyp aug-cc-pvtz output=wfx scf=(conver=6) int=(grid=ultrafine)

title

0 1
 C        1.292572000    20.584211000     3.176630000
 C        0.673909000    19.988030000     2.170986000
 H        1.554241000    21.600703000     3.398771000
 O        1.628895000    19.615510000     4.123095000
 H        0.248372000    20.322782000     1.245902000
 O        0.593219000    18.623493000     2.454765000
 C        1.206368000    18.421144000     3.645984000
 O        1.355824000    17.357704000     4.177968000
 C        0.845927000    15.309211000     1.553806000
 C        1.464590000    14.713030000     2.559450000
 H        0.584258000    16.325703000     1.331665000
 O        0.509604000    14.340510000     0.607341000
 H        1.890128000    15.047782000     3.484534000
 O        1.545281000    13.348493000     2.275671000
 C        0.932131000    13.146144000     1.084452000
 O        0.782676000    12.082704000     0.552468000

08a_vinylene_carbonate_di23.wfx

