%nprocs=4
%mem=2GB
#p b3lyp aug-cc-pvtz output=wfx scf=(conver=6) int=(grid=ultrafine)

title

0 1
 C        1.292572000    10.034211000     3.176630000
 C        0.673909000     9.438030000     2.170986000
 H        1.554241000    11.050703000     3.398771000
 O        1.628895000     9.065510000     4.123095000
 H        0.248372000     9.772782000     1.245902000
 O        0.593219000     8.073493000     2.454765000
 C        1.206368000     7.871144000     3.645984000
 O        1.355824000     6.807704000     4.177968000
 C        1.292572000    20.584211000     3.176630000
 C        0.673909000    19.988030000     2.170986000
 H        1.554241000    21.600703000     3.398771000
 O        1.628895000    19.615510000     4.123095000
 H        0.248372000    20.322782000     1.245902000
 O        0.593219000    18.623493000     2.454765000
 C        1.206368000    18.421144000     3.645984000
 O        1.355824000    17.357704000     4.177968000

08a_vinylene_carbonate_di23.wfx

