%nprocs=4
%mem=2GB
#p b3lyp aug-cc-pvtz output=wfx scf=(conver=6) int=(grid=ultrafine)

title

0 1
 C        6.442408000     9.438030000     6.901422000
 H        7.322740000    11.050703000     8.129207000
 O        7.397394000     9.065510000     8.853531000
 H        6.016871000     9.772782000     5.976338000
 O        6.361718000     8.073493000     7.185201000
 C        6.974868000     7.871144000     8.376420000
 O        7.124323000     6.807704000     8.908405000
 C       10.244426000    11.065790000     6.284242000
 C       10.863089000    11.661970000     7.289886000
 H        9.982757000    10.049297000     6.062101000
 O        9.908104000    12.034491000     5.337777000
 H       11.288627000    11.327218000     8.214970000
 O       10.943780000    13.026507000     7.006107000
 C       10.330630000    13.228856000     5.814889000
 O       10.181175000    14.292296000     5.282904000

08b_vinylene_carbonate_di23.wfx

