%nprocs=4
%mem=2GB
#p b3lyp aug-cc-pvtz output=wfx scf=(conver=6) int=(grid=ultrafine)

title

0 1
 C        0.845927000    15.309211000     1.553806000
 C        1.464590000    14.713030000     2.559450000
 H        0.584258000    16.325703000     1.331665000
 O        0.509604000    14.340510000     0.607341000
 H        1.890128000    15.047782000     3.484534000
 O        1.545281000    13.348493000     2.275671000
 C        0.932131000    13.146144000     1.084452000
 O        0.782676000    12.082704000     0.552468000

08c_vinylene_carbonate_mon1.wfx

