%nprocs=4
%mem=2GB
#p b3lyp aug-cc-pvtz output=wfx scf=(conver=6) int=(grid=ultrafine)

title

0 1
 C        3.603089000    11.661970000     7.289886000
 H        2.722757000    10.049297000     6.062101000
 O        2.648104000    12.034491000     5.337777000
 H        4.028627000    11.327218000     8.214970000
 O        3.683780000    13.026507000     7.006107000
 C        3.070630000    13.228856000     5.814889000
 O        2.921175000    14.292296000     5.282904000
 C        0.845927000    15.309211000     1.553806000
 C        1.464590000    14.713030000     2.559450000
 H        0.584258000    16.325703000     1.331665000
 O        0.509604000    14.340510000     0.607341000
 H        1.890128000    15.047782000     3.484534000
 O        1.545281000    13.348493000     2.275671000
 C        0.932131000    13.146144000     1.084452000
 O        0.782676000    12.082704000     0.552468000

08c_vinylene_carbonate_di13.wfx

