%nprocs=4
%mem=2GB
#p b3lyp aug-cc-pvtz output=wfx scf=(conver=6) int=(grid=ultrafine)

title

0 1
 C       -1.004918000    11.251778000    13.363890000
 C       -1.828837000     9.986003000    13.391440000
 H       -1.234988000    11.820456000    14.267100000
 H        0.064930000    11.054024000    13.355770000
 H       -1.271188000    11.855156000    12.501120000
 O       -2.955857000     9.947587000    12.854100000
 N       -1.315604000     8.944986000    14.045830000
 H       -1.888595000     8.125309000    14.256360000
 H       -0.387165000     9.011600000    14.468610000
 C       -1.245216000     8.514214000    17.661220000
 C       -1.929449000     9.860636000    17.688770000
 H       -0.637691000     8.429121000    18.564440000
 H       -1.951399000     7.686576000    17.653100000
 H       -0.589540000     8.443121000    16.798450000
 O       -1.399208000    10.855873000    17.151430000
 N       -3.087613000     9.936672000    18.343170000
 H       -3.510978000    10.842736000    18.553690000
 H       -3.494143000     9.099314000    18.765940000

09a_acetamide_di12.wfx

