%nprocs=4
%mem=2GB
#p b3lyp aug-cc-pvtz output=wfx scf=(conver=6) int=(grid=ultrafine)

title

0 1
 C       -1.245216000     8.514214000    17.661220000
 C       -1.929449000     9.860636000    17.688770000
 H       -0.637691000     8.429121000    18.564440000
 H       -1.951399000     7.686576000    17.653100000
 H       -0.589540000     8.443121000    16.798450000
 O       -1.399208000    10.855873000    17.151430000
 N       -3.087613000     9.936672000    18.343170000
 H       -3.510978000    10.842736000    18.553690000
 H       -3.494143000     9.099314000    18.765940000
 C        3.495866000    10.091100000    15.512560000
 C        1.987714000    10.010453000    15.540100000
 H        3.873321000     9.607515000    16.415770000
 H        3.859531000    11.116492000    15.504440000
 H        3.885273000     9.558814000    14.649780000
 O        1.390934000     9.053632000    15.002760000
 N        1.342783000    10.975434000    16.194500000
 H        0.346426000    10.889047000    16.405030000
 H        1.864692000    11.746178000    16.617270000

09a_acetamide_di23.wfx

