%nprocs=4
%mem=2GB
#p b3lyp aug-cc-pvtz output=wfx scf=(conver=6) int=(grid=ultrafine)

title

0 1
 9 3 4 5 6] of Acetamide #1, B3LYP-D*/TZP geometry
 C        3.495866000    10.091100000    15.512560000
 C        1.987714000    10.010453000    15.540100000
 H        3.873321000     9.607515000    16.415770000
 H        3.859531000    11.116492000    15.504440000
 H        3.885273000     9.558814000    14.649780000
 O        1.390934000     9.053632000    15.002760000
 N        1.342783000    10.975434000    16.194500000
 H        0.346426000    10.889047000    16.405030000
 H        1.864692000    11.746178000    16.617270000
 C       -1.004918000    11.251778000    13.363890000
 C       -1.828837000     9.986003000    13.391440000
 H       -1.234988000    11.820456000    14.267100000
 H        0.064930000    11.054024000    13.355770000
 H       -1.271188000    11.855156000    12.501120000
 O       -2.955857000     9.947587000    12.854100000
 N       -1.315604000     8.944986000    14.045830000
 H       -1.888595000     8.125309000    14.256360000
 H       -0.387165000     9.011600000    14.468610000

09a_acetamide_di13.wfx

