%nprocs=4
%mem=2GB
#p b3lyp aug-cc-pvtz output=wfx scf=(conver=6) int=(grid=ultrafine)

title

0 1
C  -1.004918  11.251778   13.36389
C  -1.828837   9.986003   13.39144
O  -2.955857   9.947587   12.85410
N  -1.315604   8.944986   14.04583
H  -1.888595   8.125309   14.25636
H  -0.387165   9.011600   14.46861
H  -1.234988  11.820456   14.26710
H   0.064930  11.054024   13.35577
H  -1.271188  11.855156   12.50112
C  -1.245216   8.514214   17.66122
C  -1.929449   9.860636   17.68877
O  -1.399208  10.855873   17.15143
N  -3.087613   9.936672   18.34317
H  -3.510978  10.842736   18.55369
H  -3.494143   9.099314   18.76594
H  -0.637691   8.429121   18.56444
H  -1.951399   7.686576   17.65310
H  -0.589540   8.443121   16.79845
C   3.495866  10.091100   15.51256
C   1.987714  10.010453   15.54010
O   1.390934   9.053632   15.00276
N   1.342783  10.975434   16.19450
H   0.346426  10.889047   16.40503
H   1.864692  11.746178   16.61727
H   3.873321   9.607515   16.41577
H   3.859531  11.116492   15.50444
H   3.885273   9.558814   14.64978

09a_acetamide.wfx

