%nprocs=4
%mem=2GB
#p b3lyp aug-cc-pvtz output=wfx scf=(conver=6) int=(grid=ultrafine)

title

0 1
 C        6.991216000     5.196760000     6.917890000
 C        7.675449000     6.543182000     6.945440000
 H        6.383691000     5.111667000     7.821100000
 H        7.697399000     4.369121000     6.909770000
 H        6.335540000     5.125666000     6.055110000
 O        7.145208000     7.538418000     6.408100000
 N        8.833613000     6.619218000     7.599830000
 H        9.256978000     7.525281000     7.810360000
 H        9.240143000     5.781859000     8.022610000
 C       14.987866000     3.456191000     6.917890000
 C       13.479714000     3.375543000     6.945440000
 H       15.365321000     2.972605000     7.821100000
 H       15.351531000     4.481583000     6.909770000
 H       15.377273000     2.923905000     6.055110000
 O       12.882934000     2.418723000     6.408100000
 N       12.834783000     4.340524000     7.599830000
 H       11.838426000     4.254138000     7.810360000
 H       13.356692000     5.111269000     8.022610000

09b_acetamide_di13.wfx

