%nprocs=4
%mem=2GB
#p b3lyp aug-cc-pvtz output=wfx scf=(conver=6) int=(grid=ultrafine)

title

0 1
 C       14.987866000     3.456191000     6.917890000
 C       13.479714000     3.375543000     6.945440000
 H       15.365321000     2.972605000     7.821100000
 H       15.351531000     4.481583000     6.909770000
 H       15.377273000     2.923905000     6.055110000
 O       12.882934000     2.418723000     6.408100000
 N       12.834783000     4.340524000     7.599830000
 H       11.838426000     4.254138000     7.810360000
 H       13.356692000     5.111269000     8.022610000
 C       10.246784000     1.879305000     9.066560000
 C        9.562551000     3.225727000     9.094100000
 H       10.854309000     1.794212000     9.969770000
 H        9.540601000     1.051666000     9.058430000
 H       10.902460000     1.808212000     8.203780000
 O       10.092792000     4.220963000     8.556760000
 N        8.404387000     3.301763000     9.748500000
 H        7.981022000     4.207826000     9.959030000
 H        7.997857000     2.464404000    10.171270000

09b_acetamide_di23.wfx

