%nprocs=4
%mem=2GB
#p b3lyp aug-cc-pvtz output=wfx scf=(conver=6) int=(grid=ultrafine)

title

0 1
C  10.246784   1.879305    9.06656
C   9.562551   3.225727    9.09410
O  10.092792   4.220963    8.55676
N   8.404387   3.301763    9.74850
H   7.981022   4.207826    9.95903
H   7.997857   2.464404   10.17127
H  10.854309   1.794212    9.96977
H   9.540601   1.051666    9.05843
H  10.902460   1.808212    8.20378
C   6.991216   5.196760    6.91789
C   7.675449   6.543182    6.94544
O   7.145208   7.538418    6.40810
N   8.833613   6.619218    7.59983
H   9.256978   7.525281    7.81036
H   9.240143   5.781859    8.02261
H   6.383691   5.111667    7.82110
H   7.697399   4.369121    6.90977
H   6.335540   5.125666    6.05511
C  14.987866   3.456191    6.91789
C  13.479714   3.375543    6.94544
O  12.882934   2.418723    6.40810
N  12.834783   4.340524    7.59983
H  11.838426   4.254138    7.81036
H  13.356692   5.111269    8.02261
H  15.365321   2.972605    7.82110
H  15.351531   4.481583    6.90977
H  15.377273   2.923905    6.05511

09b_acetamide.wfx

