%nprocs=4
%mem=2GB
#p b3lyp aug-cc-pvtz output=wfx scf=(conver=6) int=(grid=ultrafine)

title

0 1
 C       10.246784000     1.879305000     9.066560000
 C        9.562551000     3.225727000     9.094100000
 H       10.854309000     1.794212000     9.969770000
 H        9.540601000     1.051666000     9.058430000
 H       10.902460000     1.808212000     8.203780000
 O       10.092792000     4.220963000     8.556760000
 N        8.404387000     3.301763000     9.748500000
 H        7.981022000     4.207826000     9.959030000
 H        7.997857000     2.464404000    10.171270000

09b_acetamide_mon1.wfx

