%nprocs=4
%mem=2GB
#p b3lyp aug-cc-pvtz output=wfx scf=(conver=6) int=(grid=ultrafine)

title

0 1
 C       13.742134000     0.138736000     9.066560000
 C       15.250286000     0.058089000     9.094100000
 H       13.364679000    -0.344849000     9.969770000
 H       13.378469000     1.164128000     9.058430000
 H       13.352727000    -0.393550000     8.203780000
 O       15.847066000    -0.898732000     8.556760000
 N       15.895217000     1.023070000     9.748500000
 H       16.891574000     0.936683000     9.959030000
 H       15.373308000     1.793814000    10.171270000

09c_acetamide_mon2.wfx

