%nprocs=4
%mem=2GB
#p b3lyp aug-cc-pvtz output=wfx scf=(conver=6) int=(grid=ultrafine)

title

0 1
 C        7.996134000     3.456191000    13.363890000
 C        9.504286000     3.375543000    13.391440000
 H        7.618679000     2.972605000    14.267100000
 H        7.632469000     4.481583000    13.355770000
 H        7.606727000     2.923905000    12.501120000
 O       10.101066000     2.418723000    12.854100000
 N       10.149217000     4.340524000    14.045830000
 H       11.145574000     4.254138000    14.256360000
 H        9.627308000     5.111269000    14.468610000

09c_acetamide_mon1.wfx

