%nprocs=4
%mem=2GB
#p b3lyp aug-cc-pvtz output=wfx scf=(conver=6) int=(grid=ultrafine)

title

0 1
 C       12.496918000     4.616868000    11.215220000
 C       13.320837000     3.351094000    11.242770000
 H       12.726988000     5.185547000    12.118440000
 H       11.427070000     4.419115000    11.207100000
 H       12.763188000     5.220247000    10.352450000
 O       14.447857000     3.312678000    10.705430000
 N       12.807604000     2.310076000    11.897170000
 H       13.380595000     1.490400000    12.107690000
 H       11.879165000     2.376691000    12.319940000

09c_acetamide_mon3.wfx

