%nprocs=4
%mem=2GB
#p b3lyp aug-cc-pvtz output=wfx scf=(conver=6) int=(grid=ultrafine)

title

0 1
1 14 15 12 16 13 18 17] of Imidazole #1, B3LYP-D*/TZP geometry            
 N        1.225156000     1.790098000     0.793670000
 C        0.314568000     1.191681000     1.590330000
 C        1.622758000     2.943251000     1.422720000
 H        1.619151000     1.410346000    -0.093210000
 N        0.098973000     1.892803000     2.692790000
 H       -0.165462000     0.258212000     1.353790000
 C        0.918281000     2.995570000     2.592820000
 H        2.357781000     3.610084000     1.012240000
 H        0.967252000     3.744556000     3.360830000
 N        1.588037000     3.575902000     7.757860000
 C        2.498625000     4.174319000     6.961200000
 C        1.190435000     2.422749000     7.128800000
 H        1.194042000     3.955654000     8.644730000
 N        2.714220000     3.473197000     5.858730000
 H        2.978655000     5.107788000     7.197730000
 C        1.894912000     2.370431000     5.958700000
 H        0.455412000     1.755916000     7.539280000
 H        1.845941000     1.621444000     5.190690000

10a_imidazole_di12.wfx

