%nprocs=4
%mem=2GB
#p b3lyp aug-cc-pvtz output=wfx scf=(conver=6) int=(grid=ultrafine)

title

0 1
 N        1.588037000     3.575902000     7.757860000
 C        2.498625000     4.174319000     6.961200000
 C        1.190435000     2.422749000     7.128800000
 H        1.194042000     3.955654000     8.644730000
 N        2.714220000     3.473197000     5.858730000
 H        2.978655000     5.107788000     7.197730000
 C        1.894912000     2.370431000     5.958700000
 H        0.455412000     1.755916000     7.539280000
 H        1.845941000     1.621444000     5.190690000

10a_imidazole_mon2.wfx

