%nprocs=4
%mem=2GB
#p b3lyp aug-cc-pvtz output=wfx scf=(conver=6) int=(grid=ultrafine)

title

0 1
 N        6.416253000     6.258902000     5.069430000
 C        5.505664000     6.857319000     5.866090000
 C        6.813854000     5.105749000     5.698480000
 H        6.810248000     6.638654000     4.182550000
 N        5.290070000     6.156197000     6.968550000
 H        5.025635000     7.790788000     5.629550000
 C        6.109377000     5.053431000     6.868580000
 H        7.548877000     4.438916000     5.288010000
 H        6.158348000     4.304444000     7.636590000

10b_imidazole_mon3.wfx

