%nprocs=4
%mem=2GB
#p b3lyp aug-cc-pvtz output=wfx scf=(conver=6) int=(grid=ultrafine)

title

0 1
3 24 21 25 22 27 26] of Imidazole #2, B3LYP-D*/TZP geometry
 N        3.965941000     9.839098000     3.482090000
 C        4.876529000     9.240681000     2.685430000
 C        3.568339000    10.992251000     2.853040000
 H        3.571945000     9.459346000     4.368970000
 N        5.092123000     9.941803000     1.582970000
 H        5.356558000     8.307212000     2.921970000
 C        4.272816000    11.044569000     1.682940000
 H        2.833316000    11.659084000     3.263520000
 H        4.223845000    11.793556000     0.914930000
 N        6.416253000     6.258902000     5.069430000
 C        5.505664000     6.857319000     5.866090000
 C        6.813854000     5.105749000     5.698480000
 H        6.810248000     6.638654000     4.182550000
 N        5.290070000     6.156197000     6.968550000
 H        5.025635000     7.790788000     5.629550000
 C        6.109377000     5.053431000     6.868580000
 H        7.548877000     4.438916000     5.288010000
 H        6.158348000     4.304444000     7.636590000

10b_imidazole_di23.wfx

