%nprocs=4
%mem=2GB
#p b3lyp aug-cc-pvtz output=wfx scf=(conver=6) int=(grid=ultrafine)

title

0 1
 N       -3.530651000     1.790098000     9.345190000
 C       -4.441239000     1.191681000    10.141850000
 C       -3.133049000     2.943251000     9.974240000
 H       -3.136656000     1.410346000     8.458310000
 N       -4.656834000     1.892803000    11.244310000
 H       -4.921269000     0.258212000     9.905310000
 C       -3.837526000     2.995570000    11.144340000
 H       -2.398026000     3.610084000     9.563770000
 H       -3.788555000     3.744556000    11.912350000
 N       -1.152747000     0.892902000     5.069430000
 C       -2.063336000     1.491319000     5.866090000
 C       -0.755146000    -0.260251000     5.698480000
 H       -0.758752000     1.272654000     4.182550000
 N       -2.278930000     0.790197000     6.968550000
 H       -2.543365000     2.424788000     5.629550000
 C       -1.459623000    -0.312569000     6.868580000
 H       -0.020123000    -0.927084000     5.288010000
 H       -1.410652000    -1.061556000     7.636590000

10c_imidazole_di13.wfx

