%nprocs=4
%mem=2GB
#p b3lyp aug-cc-pvtz output=wfx scf=(conver=6) int=(grid=ultrafine)

title

0 1
 N       -1.152747000     0.892902000     5.069430000
 C       -2.063336000     1.491319000     5.866090000
 C       -0.755146000    -0.260251000     5.698480000
 H       -0.758752000     1.272654000     4.182550000
 N       -2.278930000     0.790197000     6.968550000
 H       -2.543365000     2.424788000     5.629550000
 C       -1.459623000    -0.312569000     6.868580000
 H       -0.020123000    -0.927084000     5.288010000
 H       -1.410652000    -1.061556000     7.636590000
 N        1.225156000     1.790098000     0.793670000
 C        0.314568000     1.191681000     1.590330000
 C        1.622758000     2.943251000     1.422720000
 H        1.619151000     1.410346000    -0.093210000
 N        0.098973000     1.892803000     2.692790000
 H       -0.165462000     0.258212000     1.353790000
 C        0.918281000     2.995570000     2.592820000
 H        2.357781000     3.610084000     1.012240000
 H        0.967252000     3.744556000     3.360830000

10c_imidazole_di23.wfx

