%nprocs=4
%mem=2GB
#p b3lyp aug-cc-pvtz output=wfx scf=(conver=6) int=(grid=ultrafine)

title

0 1
 O        0.447832000    18.976136000     6.080160000
 N        1.753952000    19.355377000     6.419620000
 C        0.407901000    17.633333000     6.009230000
 C        2.426879000    18.230472000     6.560410000
 C        1.612204000    17.094753000     6.294780000
 H       -0.548059000    17.217001000     5.751390000
 O        3.704261000    18.197387000     6.914750000
 H        1.889469000    16.056848000     6.332750000
 H        4.010041000    19.111202000     7.209650000

11a_isoxazole_mon2.wfx

