%nprocs=4
%mem=2GB
#p b3lyp aug-cc-pvtz output=wfx scf=(conver=6) int=(grid=ultrafine)

title

0 1
 O        0.447832000    18.976136000     6.080160000
 N        1.753952000    19.355377000     6.419620000
 C        0.407901000    17.633333000     6.009230000
 C        2.426879000    18.230472000     6.560410000
 C        1.612204000    17.094753000     6.294780000
 H       -0.548059000    17.217001000     5.751390000
 O        3.704261000    18.197387000     6.914750000
 H        1.889469000    16.056848000     6.332750000
 H        4.010041000    19.111202000     7.209650000
 O        5.679703000    14.970636000     4.548000000
 N        4.373584000    15.349877000     4.208540000
 C        5.719634000    13.627833000     4.618930000
 C        3.700657000    14.224972000     4.067750000
 C        4.515331000    13.089253000     4.333380000
 H        6.675595000    13.211501000     4.876770000
 O        2.423275000    14.191887000     3.713410000
 H        4.238066000    12.051348000     4.295410000
 H        2.117495000    15.105702000     3.418510000

11a_isoxazole_di23.wfx

