%nprocs=4
%mem=2GB
#p b3lyp aug-cc-pvtz output=wfx scf=(conver=6) int=(grid=ultrafine)

title

0 1
O   0.492354  17.073364    2.53744
N   1.798473  16.694123    2.87690
C   2.471400  17.819028    3.01769
O   3.748782  17.852113    3.37203
C   1.656726  18.954747    2.75206
C   0.452423  18.416167    2.46651
H   4.054562  16.938298    3.66693
H   1.933991  19.992652    2.79003
H  -0.503537  18.832499    2.20867
O   0.447832  18.976136    6.08016
N   1.753952  19.355377    6.41962
C   2.426879  18.230472    6.56041
O   3.704261  18.197387    6.91475
C   1.612204  17.094753    6.29478
C   0.407901  17.633333    6.00923
H   4.010041  19.111202    7.20965
H   1.889469  16.056848    6.33275
H  -0.548059  17.217001    5.75139
O   5.679703  14.970636    4.54800
N   4.373584  15.349877    4.20854
C   3.700657  14.224972    4.06775
O   2.423275  14.191887    3.71341
C   4.515331  13.089253    4.33338
C   5.719634  13.627833    4.61893
H   2.117495  15.105702    3.41851
H   4.238066  12.051348    4.29541
H   6.675595  13.211501    4.87677

11a_isoxazole.wfx

