%nprocs=4
%mem=2GB
#p b3lyp aug-cc-pvtz output=wfx scf=(conver=6) int=(grid=ultrafine)

title

0 1
[ 19 20 24 21 23 27 22 26 25] of Isoxazole #2, B3LYP-D*/TZP geometry         
 O       11.896282000     5.056864000     8.090720000
 N       10.590162000     4.677623000     7.751260000
 C       11.936213000     6.399667000     8.161650000
 C        9.917235000     5.802528000     7.610470000
 C       10.731910000     6.938247000     7.876100000
 H       12.892173000     6.815999000     8.419490000
 O        8.639853000     5.835613000     7.256130000
 H       10.454645000     7.976152000     7.838130000
 H        8.334073000     4.921798000     6.961230000
 O        6.708932000     2.954136000     6.080160000
 N        8.015052000     3.333377000     6.419620000
 C        6.669001000     1.611333000     6.009230000
 C        8.687979000     2.208472000     6.560410000
 C        7.873304000     1.072753000     6.294780000
 H        5.713041000     1.195001000     5.751390000
 O        9.965361000     2.175387000     6.914750000
 H        8.150569000     0.034848000     6.332750000
 H       10.271141000     3.089202000     7.209650000

11b_isoxazole_di23.wfx

