%nprocs=4
%mem=2GB
#p b3lyp aug-cc-pvtz output=wfx scf=(conver=6) int=(grid=ultrafine)

title

0 1
 O        5.635182000     5.056864000     8.090720000
 N        4.329062000     4.677623000     7.751260000
 C        5.675113000     6.399667000     8.161650000
 C        3.656135000     5.802528000     7.610470000
 C        4.470810000     6.938247000     7.876100000
 H        6.631073000     6.815999000     8.419490000
 O        2.378753000     5.835613000     7.256130000
 H        4.193545000     7.976152000     7.838130000
 H        2.072973000     4.921798000     6.961230000

11b_isoxazole_mon1.wfx

