%nprocs=4
%mem=2GB
#p b3lyp aug-cc-pvtz output=wfx scf=(conver=6) int=(grid=ultrafine)

title

0 1
 O        6.708932000     2.954136000     6.080160000
 N        8.015052000     3.333377000     6.419620000
 C        6.669001000     1.611333000     6.009230000
 C        8.687979000     2.208472000     6.560410000
 C        7.873304000     1.072753000     6.294780000
 H        5.713041000     1.195001000     5.751390000
 O        9.965361000     2.175387000     6.914750000
 H        8.150569000     0.034848000     6.332750000
 H       10.271141000     3.089202000     7.209650000
 O        5.679703000     6.959636000     4.548000000
 N        4.373584000     7.338877000     4.208540000
 C        5.719634000     5.616833000     4.618930000
 C        3.700657000     6.213972000     4.067750000
 C        4.515331000     5.078253000     4.333380000
 H        6.675595000     5.200501000     4.876770000
 O        2.423275000     6.180887000     3.713410000
 H        4.238066000     4.040348000     4.295410000
 H        2.117495000     7.094702000     3.418510000

11c_isoxazole_di23.wfx

