%nprocs=4
%mem=2GB
#p b3lyp aug-cc-pvtz output=wfx scf=(conver=6) int=(grid=ultrafine)

title

0 1
O   0.492354   9.062364    2.53744
N   1.798473   8.683123    2.87690
C   2.471400   9.808028    3.01769
O   3.748782   9.841113    3.37203
C   1.656726  10.943747    2.75206
C   0.452423  10.405167    2.46651
H   4.054562   8.927298    3.66693
H   1.933991  11.981652    2.79003
H  -0.503537  10.821499    2.20867
O   6.708932   2.954136    6.08016
N   8.015052   3.333377    6.41962
C   8.687979   2.208472    6.56041
O   9.965361   2.175387    6.91475
C   7.873304   1.072753    6.29478
C   6.669001   1.611333    6.00923
H  10.271141   3.089202    7.20965
H   8.150569   0.034848    6.33275
H   5.713041   1.195001    5.75139
O   5.679703   6.959636    4.54800
N   4.373584   7.338877    4.20854
C   3.700657   6.213972    4.06775
O   2.423275   6.180887    3.71341
C   4.515331   5.078253    4.33338
C   5.719634   5.616833    4.61893
H   2.117495   7.094702    3.41851
H   4.238066   4.040348    4.29541
H   6.675595   5.200501    4.87677

11c_isoxazole.wfx

