%nprocs=4
%mem=2GB
#p b3lyp aug-cc-pvtz output=wfx scf=(conver=6) int=(grid=ultrafine)

title

0 1
 C       10.627016000     5.579002000     5.969050000
 C       11.476074000     4.843862000     6.811400000
 H       10.840612000     6.458651000     5.386430000
 N        9.404905000     5.043760000     5.936670000
 C       10.688278000     3.817185000     7.295060000
 H       12.510061000     5.034319000     7.031660000
 N        9.461334000     3.972773000     6.757420000
 H       10.917516000     3.011175000     7.967690000
 H        8.629312000     3.364017000     6.843580000

12a_pyrazole_mon1.wfx

