%nprocs=4
%mem=2GB
#p b3lyp aug-cc-pvtz output=wfx scf=(conver=6) int=(grid=ultrafine)

title

0 1
C  10.627016   5.579002    5.96905
C  11.476074   4.843862    6.81140
C  10.688278   3.817185    7.29506
H   8.629312   3.364017    6.84358
H  10.917516   3.011175    7.96769
H  12.510061   5.034319    7.03166
H  10.840612   6.458651    5.38643
N   9.461334   3.972773    6.75742
N   9.404905   5.043760    5.93667
C   5.922353   2.348921    6.26198
C   5.048807   1.377253    6.77381
C   5.801878   0.678241    7.69575
H   7.837666   1.037377    8.31372
H   5.554540  -0.141615    8.34562
H   4.020061   1.210588    6.51427
H   5.722353   3.102313    5.52047
N   7.033572   1.229218    7.69636
N   7.127429   2.256777    6.82691
C   5.922353   3.945079    2.87548
C   5.048807   4.916747    3.38731
C   5.801878   5.615759    4.30925
H   7.837666   5.256623    4.92722
H   5.554540   6.435615    4.95912
H   4.020061   5.083412    3.12777
H   5.722353   3.191687    2.13397
N   7.033572   5.064782    4.30986
N   7.127429   4.037223    3.44041

12a_pyrazole.wfx

