%nprocs=4
%mem=2GB
#p b3lyp aug-cc-pvtz output=wfx scf=(conver=6) int=(grid=ultrafine)

title

0 1
 C        2.437016000     5.579002000     5.969050000
 C        3.286074000     4.843862000     6.811400000
 H        2.650612000     6.458651000     5.386430000
 N        1.214905000     5.043760000     5.936670000
 C        2.498278000     3.817185000     7.295060000
 H        4.320061000     5.034319000     7.031660000
 N        1.271334000     3.972773000     6.757420000
 H        2.727516000     3.011175000     7.967690000
 H        0.439312000     3.364017000     6.843580000

12b_pyrazole_mon1.wfx

