%nprocs=4
%mem=2GB
#p b3lyp aug-cc-pvtz output=wfx scf=(conver=6) int=(grid=ultrafine)

title

0 1
 C        5.922353000     3.945079000     2.875480000
 C        5.048807000     4.916747000     3.387310000
 H        5.722353000     3.191687000     2.133970000
 N        7.127429000     4.037223000     3.440410000
 C        5.801878000     5.615759000     4.309250000
 H        4.020061000     5.083412000     3.127770000
 N        7.033572000     5.064782000     4.309860000
 H        5.554540000     6.435615000     4.959120000
 H        7.837666000     5.256623000     4.927220000
 C        2.437016000     5.579002000     5.969050000
 C        3.286074000     4.843862000     6.811400000
 H        2.650612000     6.458651000     5.386430000
 N        1.214905000     5.043760000     5.936670000
 C        2.498278000     3.817185000     7.295060000
 H        4.320061000     5.034319000     7.031660000
 N        1.271334000     3.972773000     6.757420000
 H        2.727516000     3.011175000     7.967690000
 H        0.439312000     3.364017000     6.843580000

12b_pyrazole_di13.wfx

