%nprocs=4
%mem=2GB
#p b3lyp aug-cc-pvtz output=wfx scf=(conver=6) int=(grid=ultrafine)

title

0 1
  Fragment[ 19 20 25 27 21 24 26 23 22] of Pyrazole #2, B3LYP-D*/TZP geometry                    
 C        5.922353000     2.348921000     6.261980000
 C        5.048807000     1.377253000     6.773810000
 H        5.722353000     3.102313000     5.520470000
 N        7.127429000     2.256777000     6.826910000
 C        5.801878000     0.678241000     7.695750000
 H        4.020061000     1.210588000     6.514270000
 N        7.033572000     1.229218000     7.696360000
 H        5.554540000    -0.141615000     8.345620000
 H        7.837666000     1.037377000     8.313720000
 C        5.922353000     3.945079000     2.875480000
 C        5.048807000     4.916747000     3.387310000
 H        5.722353000     3.191687000     2.133970000
 N        7.127429000     4.037223000     3.440410000
 C        5.801878000     5.615759000     4.309250000
 H        4.020061000     5.083412000     3.127770000
 N        7.033572000     5.064782000     4.309860000
 H        5.554540000     6.435615000     4.959120000
 H        7.837666000     5.256623000     4.927220000

12b_pyrazole_di23.wfx

