%nprocs=4
%mem=2GB
#p b3lyp aug-cc-pvtz output=wfx scf=(conver=6) int=(grid=ultrafine)

title

0 1
 C       14.722016000     7.008998000    14.349950000
 C       15.571074000     7.744138000    13.507600000
 H       14.935612000     6.129349000    14.932570000
 N       13.499905000     7.544240000    14.382330000
 C       14.783278000     8.770815000    13.023940000
 H       16.605061000     7.553681000    13.287340000
 N       13.556334000     8.615227000    13.561580000
 H       15.012516000     9.576825000    12.351310000
 H       12.724312000     9.223983000    13.475420000

12c_pyrazole_mon1.wfx

