%nprocs=4
%mem=2GB
#p b3lyp aug-cc-pvtz output=wfx scf=(conver=6) int=(grid=ultrafine)

title

0 1
 C       14.722016000    11.873002000    10.963450000
 C       15.571074000    11.137862000    10.121100000
 H       14.935612000    12.752651000    11.546070000
 N       13.499905000    11.337760000    10.995830000
 C       14.783278000    10.111185000     9.637440000
 H       16.605061000    11.328319000     9.900840000
 N       13.556334000    10.266773000    10.175080000
 H       15.012516000     9.305175000     8.964810000
 H       12.724312000     9.658017000    10.088920000
 C       10.017353000     8.642921000    17.443520000
 C        9.143807000     7.671253000    16.931690000
 H        9.817353000     9.396313000    18.185030000
 N       11.222429000     8.550777000    16.878590000
 C        9.896878000     6.972241000    16.009750000
 H        8.115062000     7.504588000    17.191230000
 N       11.128572000     7.523218000    16.009140000
 H        9.649540000     6.152385000    15.359880000
 H       11.932666000     7.331377000    15.391780000

12c_pyrazole_di13.wfx

