%nprocs=4
%mem=2GB
#p b3lyp aug-cc-pvtz output=wfx scf=(conver=6) int=(grid=ultrafine)

title

0 1
 C       10.017353000     8.642921000    17.443520000
 C        9.143807000     7.671253000    16.931690000
 H        9.817353000     9.396313000    18.185030000
 N       11.222429000     8.550777000    16.878590000
 C        9.896878000     6.972241000    16.009750000
 H        8.115062000     7.504588000    17.191230000
 N       11.128572000     7.523218000    16.009140000
 H        9.649540000     6.152385000    15.359880000
 H       11.932666000     7.331377000    15.391780000
 C       14.722016000     7.008998000    14.349950000
 C       15.571074000     7.744138000    13.507600000
 H       14.935612000     6.129349000    14.932570000
 N       13.499905000     7.544240000    14.382330000
 C       14.783278000     8.770815000    13.023940000
 H       16.605061000     7.553681000    13.287340000
 N       13.556334000     8.615227000    13.561580000
 H       15.012516000     9.576825000    12.351310000
 H       12.724312000     9.223983000    13.475420000

12c_pyrazole_di23.wfx

