%nprocs=4
%mem=2GB
#p b3lyp aug-cc-pvtz output=wfx scf=(conver=6) int=(grid=ultrafine)

title

0 1
%nprocs=4
%mem=2GB
#p b3lyp aug-cc-pvtz output=wfx scf=(conver=6) int=(grid=ultrafine)

title

0 1
 H       -3.632433000     6.291559000     5.460750000
 N       -5.507376000     7.170039000     5.460750000
 C       -4.173485000     9.480406000     5.460750000
 C       -6.123530000     8.354547000     5.460750000
 N       -5.507376000     9.539055000     5.460750000
 H       -3.632433000    10.417535000     5.460750000
 H       -7.205634000     8.354547000     5.460750000
 C       -4.173485000     7.228688000    12.741750000
 N       -3.455748000     8.354547000    12.741750000
 H       -3.632433000     6.291559000    12.741750000
 N       -5.507376000     7.170039000    12.741750000
 C       -4.173485000     9.480406000    12.741750000
 C       -6.123530000     8.354547000    12.741750000
 N       -5.507376000     9.539055000    12.741750000
 H       -3.632433000    10.417535000    12.741750000
 H       -7.205634000     8.354547000    12.741750000

13a_triazine_di13.wfx

