%nprocs=4
%mem=2GB
#p b3lyp aug-cc-pvtz output=wfx scf=(conver=6) int=(grid=ultrafine)

title

0 1
gment[ 1 2 3 5 7 4 8 9 6] of Triazine #1, B3LYP-D*/TZP geometry               
 C       -4.173485000     7.228688000    12.741750000
 N       -3.455748000     8.354547000    12.741750000
 H       -3.632433000     6.291559000    12.741750000
 N       -5.507376000     7.170039000    12.741750000
 C       -4.173485000     9.480406000    12.741750000
 C       -6.123530000     8.354547000    12.741750000
 N       -5.507376000     9.539055000    12.741750000
 H       -3.632433000    10.417535000    12.741750000
 H       -7.205634000     8.354547000    12.741750000
 C       -3.523470000     8.354547000     9.101250000
 N       -4.139624000     7.170039000     9.101250000
 H       -2.441366000     8.354547000     9.101250000
 N       -4.139624000     9.539055000     9.101250000
 C       -5.473515000     7.228688000     9.101250000
 C       -5.473515000     9.480406000     9.101250000
 N       -6.191252000     8.354547000     9.101250000
 H       -6.014567000     6.291559000     9.101250000
 H       -6.014567000    10.417535000     9.101250000

13a_triazine_di13.wfx

