%nprocs=4
%mem=2GB
#p b3lyp aug-cc-pvtz output=wfx scf=(conver=6) int=(grid=ultrafine)

title

0 1
 C        1.300030000     5.569698000     6.674250000
 N        0.683876000     4.385190000     6.674250000
 H        2.382134000     5.569698000     6.674250000
 N        0.683876000     6.754206000     6.674250000
 C       -0.650015000     4.443839000     6.674250000
 C       -0.650015000     6.695557000     6.674250000
 N       -1.367752000     5.569698000     6.674250000
 H       -1.191067000     3.506710000     6.674250000
 H       -1.191067000     7.632686000     6.674250000

13b_triazine_mon2.wfx

