%nprocs=4
%mem=2GB
#p b3lyp aug-cc-pvtz output=wfx scf=(conver=6) int=(grid=ultrafine)

title

0 1
 C        2.914349000    23.782511000     0.683048000
 C        3.427280000    25.112897000     1.251656000
 N        3.423129000    22.691524000     1.262585000
 O        2.121953000    23.756077000    -0.261952000
 C        2.787287000    26.254583000     0.628049000
 H        3.275043000    25.177288000     2.329501000
 H        4.505214000    25.194233000     1.093851000
 H        3.103105000    21.776494000     0.938231000
 H        4.039968000    22.763235000     2.063953000
 N        2.282408000    27.162428000     0.135524000
 C        5.578016000    24.531209000     4.180296000
 C        5.959025000    25.683875000     4.971369000
 N        5.270009000    23.616585000     3.555913000
 C        5.523547000    27.001790000     4.318499000
 H        7.033398000    25.650121000     5.147860000
 H        5.473121000    25.603895000     5.947323000
 N        6.093512000    28.097115000     4.832460000
 O        4.699107000    27.019141000     3.402268000
 H        5.745653000    29.007129000     4.522561000
 H        6.694405000    28.038010000     5.647154000

14a_cyanoacetamide_di13.wfx

