%nprocs=4
%mem=2GB
#p b3lyp aug-cc-pvtz output=wfx scf=(conver=6) int=(grid=ultrafine)

title

0 1
 C        5.578016000    24.531209000     4.180296000
 C        5.959025000    25.683875000     4.971369000
 N        5.270009000    23.616585000     3.555913000
 C        5.523547000    27.001790000     4.318499000
 H        7.033398000    25.650121000     5.147860000
 H        5.473121000    25.603895000     5.947323000
 N        6.093512000    28.097115000     4.832460000
 O        4.699107000    27.019141000     3.402268000
 H        5.745653000    29.007129000     4.522561000
 H        6.694405000    28.038010000     5.647154000

14a_cyanoacetamide_mon3.wfx

