%nprocs=4
%mem=2GB
#p b3lyp aug-cc-pvtz output=wfx scf=(conver=6) int=(grid=ultrafine)

title

0 1
 C        4.078580000    17.004511000     2.842545000
 C        3.565648000    18.334897000     2.273937000
 N        3.569799000    15.913524000     2.263008000
 O        4.870975000    16.978077000     3.787545000
 C        4.205641000    19.476583000     2.897544000
 H        3.717885000    18.399288000     1.196093000
 H        2.487714000    18.416233000     2.431743000
 H        3.889823000    14.998494000     2.587362000
 H        2.952960000    15.985235000     1.461640000
 N        4.710520000    20.384428000     3.390070000

14b_cyanoacetamide_mon2.wfx

