%nprocs=4
%mem=2GB
#p b3lyp aug-cc-pvtz output=wfx scf=(conver=6) int=(grid=ultrafine)

title

0 1
 C        2.712508000     3.329489000     6.368138000
 C        2.199576000     1.999103000     5.799531000
 N        2.203727000     4.420476000     5.788601000
 O        3.504903000     3.355923000     7.313138000
 C        2.839569000     0.857417000     6.423138000
 H        2.351814000     1.934712000     4.721686000
 H        1.121642000     1.917767000     5.957336000
 H        2.523751000     5.335506000     6.112956000
 H        1.586888000     4.348765000     4.987234000
 N        3.344448000    -0.050428000     6.915663000

14c_cyanoacetamide_mon1.wfx

