%nprocs=4
%mem=2GB
#p b3lyp aug-cc-pvtz output=wfx scf=(conver=6) int=(grid=ultrafine)

title

0 1
 C        8.339364000     3.329489000    13.419325000
 C        7.826432000     1.999103000    12.850717000
 N        7.830584000     4.420476000    12.839788000
 O        9.131759000     3.355923000    14.364325000
 C        8.466425000     0.857417000    13.474324000
 H        7.978670000     1.934712000    11.772873000
 H        6.748498000     1.917767000    13.008523000
 H        8.150607000     5.335506000    13.164143000
 H        7.213744000     4.348765000    12.038421000
 N        8.971305000    -0.050428000    13.966850000

14c_cyanoacetamide_mon2.wfx

