%nprocs=4
%mem=2GB
#p b3lyp aug-cc-pvtz output=wfx scf=(conver=6) int=(grid=ultrafine)

title

0 1
 21 22 28 23 24 25 29 30 26 27] of Cyanoacetamide #1, B3LYP-D*/TZP geometry
 C        8.339364000     3.329489000    13.419325000
 C        7.826432000     1.999103000    12.850717000
 N        7.830584000     4.420476000    12.839788000
 O        9.131759000     3.355923000    14.364325000
 C        8.466425000     0.857417000    13.474324000
 H        7.978670000     1.934712000    11.772873000
 H        6.748498000     1.917767000    13.008523000
 H        8.150607000     5.335506000    13.164143000
 H        7.213744000     4.348765000    12.038421000
 N        8.971305000    -0.050428000    13.966850000
 C        5.675696000     2.580791000     9.922077000
 C        5.294688000     1.428125000     9.131005000
 N        5.983703000     3.495415000    10.546460000
 C        5.730166000     0.110210000     9.783874000
 H        4.220314000     1.461879000     8.954514000
 H        5.780591000     1.508105000     8.155050000
 N        5.160200000    -0.985115000     9.269913000
 O        6.554606000     0.092859000    10.700105000
 H        5.508059000    -1.895129000     9.579813000
 H        4.559308000    -0.926010000     8.455219000

14c_cyanoacetamide_di23.wfx

