%nprocs=4
%mem=2GB
#p b3lyp aug-cc-pvtz output=wfx scf=(conver=6) int=(grid=ultrafine)

title

0 1
 N        3.187601000     4.376465000    -1.496640000
 C        2.374574000     4.877151000    -0.822320000
 N        1.447054000     5.487370000    -0.158370000
 C        1.185537000     5.156956000     1.116760000
 N        1.867065000     4.229109000     1.797930000
 N        0.206646000     5.817607000     1.733020000
 H        1.540497000     3.957310000     2.717720000
 H        2.611069000     3.685335000     1.377570000
 H       -0.007785000     5.587082000     2.696950000
 H       -0.346843000     6.494360000     1.207980000

15a_cyanoguanidine_mon1.wfx

