%nprocs=4
%mem=2GB
#p b3lyp aug-cc-pvtz output=wfx scf=(conver=6) int=(grid=ultrafine)

title

0 1
 C       -0.456344000     3.970449000     5.078340000
 N       -1.383864000     3.360230000     5.742280000
 C       -1.645381000     3.690644000     7.017410000
 N       -0.963853000     4.618491000     7.698580000
 N       -2.624272000     3.029993000     7.633670000
 H       -1.290422000     4.890290000     8.618370000
 H       -0.219850000     5.162265000     7.278220000
 H       -2.838703000     3.260518000     8.597600000
 H       -3.177761000     2.353240000     7.108630000

15a_cyanoguanidine_mon3.wfx

