%nprocs=4
%mem=2GB
#p b3lyp aug-cc-pvtz output=wfx scf=(conver=6) int=(grid=ultrafine)

title

0 1
agment[ 21 22 23 24 25 26 27 28 29 30] of Cyanoguanidine #1, B3LYP-D*/TZP geometry       
 N       -1.410087000     2.259235000    13.297950000
 C       -0.597061000     1.758549000    12.623620000
 N        0.330459000     1.148330000    11.959680000
 C        0.591976000     1.478744000    10.684550000
 N       -0.089552000     2.406591000    10.003380000
 N        1.570867000     0.818093000    10.068280000
 H        0.237017000     2.678390000     9.083580000
 H       -0.833555000     2.950365000    10.423740000
 H        1.785298000     1.048618000     9.104350000
 H        2.124356000     0.141340000    10.593320000
 N       -1.410087000     6.683035000    13.297950000
 C       -0.597061000     6.182349000    12.623620000
 N        0.330459000     5.572130000    11.959680000
 C        0.591976000     5.902544000    10.684550000
 N       -0.089552000     6.830391000    10.003380000
 N        1.570867000     5.241893000    10.068280000
 H        0.237017000     7.102190000     9.083580000
 H       -0.833555000     7.374165000    10.423740000
 H        1.785298000     5.472418000     9.104350000
 H        2.124356000     4.565140000    10.593320000

15b_cyanoguanidine_di23.wfx

