%nprocs=4
%mem=2GB
#p b3lyp aug-cc-pvtz output=wfx scf=(conver=6) int=(grid=ultrafine)

title

0 1
 N       -1.410087000     6.683035000    13.297950000
 C       -0.597061000     6.182349000    12.623620000
 N        0.330459000     5.572130000    11.959680000
 C        0.591976000     5.902544000    10.684550000
 N       -0.089552000     6.830391000    10.003380000
 N        1.570867000     5.241893000    10.068280000
 H        0.237017000     7.102190000     9.083580000
 H       -0.833555000     7.374165000    10.423740000
 H        1.785298000     5.472418000     9.104350000
 H        2.124356000     4.565140000    10.593320000
 N       -2.474236000     4.376465000    10.304660000
 C       -3.287263000     4.877151000    10.978990000
 N       -4.214783000     5.487370000    11.642930000
 C       -4.476300000     5.156956000    12.918060000
 N       -3.794771000     4.229109000    13.599230000
 N       -5.455191000     5.817607000    13.534330000
 H       -4.121340000     3.957310000    14.519030000
 H       -3.050768000     3.685335000    13.178870000
 H       -5.669621000     5.587082000    14.498260000
 H       -6.008679000     6.494360000    13.009290000

15b_cyanoguanidine_di23.wfx

