%nprocs=4
%mem=2GB
#p b3lyp aug-cc-pvtz output=wfx scf=(conver=6) int=(grid=ultrafine)

title

0 1
 N       -2.474236000     4.376465000    10.304660000
 C       -3.287263000     4.877151000    10.978990000
 N       -4.214783000     5.487370000    11.642930000
 C       -4.476300000     5.156956000    12.918060000
 N       -3.794771000     4.229109000    13.599230000
 N       -5.455191000     5.817607000    13.534330000
 H       -4.121340000     3.957310000    14.519030000
 H       -3.050768000     3.685335000    13.178870000
 H       -5.669621000     5.587082000    14.498260000
 H       -6.008679000     6.494360000    13.009290000

15b_cyanoguanidine_mon1.wfx

