%nprocs=4
%mem=2GB
#p b3lyp aug-cc-pvtz output=wfx scf=(conver=6) int=(grid=ultrafine)

title

0 1
N  -2.474236   4.376465   10.30466
C  -3.287263   4.877151   10.97899
N  -4.214783   5.487370   11.64293
C  -4.476300   5.156956   12.91806
N  -3.794771   4.229109   13.59923
N  -5.455191   5.817607   13.53433
H  -4.121340   3.957310   14.51903
H  -3.050768   3.685335   13.17887
H  -5.669621   5.587082   14.49826
H  -6.008679   6.494360   13.00929
N  -1.410087   2.259235   13.29795
C  -0.597061   1.758549   12.62362
N   0.330459   1.148330   11.95968
C   0.591976   1.478744   10.68455
N  -0.089552   2.406591   10.00338
N   1.570867   0.818093   10.06828
H   0.237017   2.678390    9.08358
H  -0.833555   2.950365   10.42374
H   1.785298   1.048618    9.10435
H   2.124356   0.141340   10.59332
N  -1.410087   6.683035   13.29795
C  -0.597061   6.182349   12.62362
N   0.330459   5.572130   11.95968
C   0.591976   5.902544   10.68455
N  -0.089552   6.830391   10.00338
N   1.570867   5.241893   10.06828
H   0.237017   7.102190    9.08358
H  -0.833555   7.374165   10.42374
H   1.785298   5.472418    9.10435
H   2.124356   4.565140   10.59332

15b_cyanoguanidine.wfx

