%nprocs=4
%mem=2GB
#p b3lyp aug-cc-pvtz output=wfx scf=(conver=6) int=(grid=ultrafine)

title

0 1
agment[ 1 2 3 4 5 6 7 8 9 10] of Cyanoguanidine #1, B3LYP-D*/TZP geometry       
 N        0.356682000     4.471135000     4.404010000
 C       -0.456344000     3.970449000     5.078340000
 N       -1.383864000     3.360230000     5.742280000
 C       -1.645381000     3.690644000     7.017410000
 N       -0.963853000     4.618491000     7.698580000
 N       -2.624272000     3.029993000     7.633670000
 H       -1.290422000     4.890290000     8.618370000
 H       -0.219850000     5.162265000     7.278220000
 H       -2.838703000     3.260518000     8.597600000
 H       -3.177761000     2.353240000     7.108630000
 N        3.187601000    -0.047335000    -1.496640000
 C        2.374574000     0.453351000    -0.822320000
 N        1.447054000     1.063570000    -0.158370000
 C        1.185537000     0.733156000     1.116760000
 N        1.867065000    -0.194691000     1.797930000
 N        0.206646000     1.393807000     1.733020000
 H        1.540497000    -0.466490000     2.717720000
 H        2.611069000    -0.738465000     1.377570000
 H       -0.007785000     1.163282000     2.696950000
 H       -0.346843000     2.070560000     1.207980000

15c_cyanoguanidine_di13.wfx

