%nprocs=4
%mem=2GB
#p b3lyp aug-cc-pvtz output=wfx scf=(conver=6) int=(grid=ultrafine)

title

0 1
 C        2.374574000     0.453351000    -0.822320000
 N        1.447054000     1.063570000    -0.158370000
 C        1.185537000     0.733156000     1.116760000
 N        1.867065000    -0.194691000     1.797930000
 N        0.206646000     1.393807000     1.733020000
 H        1.540497000    -0.466490000     2.717720000
 H        2.611069000    -0.738465000     1.377570000
 H       -0.007785000     1.163282000     2.696950000
 H       -0.346843000     2.070560000     1.207980000

15c_cyanoguanidine_mon1.wfx

