%nprocs=4
%mem=2GB
#p b3lyp aug-cc-pvtz output=wfx scf=(conver=6) int=(grid=ultrafine)

title

0 1
N   3.187601  -0.047335   -1.49664
C   2.374574   0.453351   -0.82232
N   1.447054   1.063570   -0.15837
C   1.185537   0.733156    1.11676
N   1.867065  -0.194691    1.79793
N   0.206646   1.393807    1.73302
H   1.540497  -0.466490    2.71772
H   2.611069  -0.738465    1.37757
H  -0.007785   1.163282    2.69695
H  -0.346843   2.070560    1.20798
N   1.420831   2.164565    7.39729
C   2.233857   2.665251    6.72297
N   3.161378   3.275470    6.05903
C   3.422894   2.945056    4.78389
N   2.741366   2.017209    4.10272
N   4.401785   3.605707    4.16763
H   3.067935   1.745410    3.18293
H   1.997363   1.473435    4.52309
H   4.616216   3.375182    3.20370
H   4.955274   4.282460    4.69267
N   0.356682   4.471135    4.40401
C  -0.456344   3.970449    5.07834
N  -1.383864   3.360230    5.74228
C  -1.645381   3.690644    7.01741
N  -0.963853   4.618491    7.69858
N  -2.624272   3.029993    7.63367
H  -1.290422   4.890290    8.61837
H  -0.219850   5.162265    7.27822
H  -2.838703   3.260518    8.59760
H  -3.177761   2.353240    7.10863

15c_cyanoguanidine.wfx

