%nprocs=4
%mem=2GB
#p b3lyp aug-cc-pvtz output=wfx scf=(conver=6) int=(grid=ultrafine)

title

0 1
N   1.296199  16.903650    2.17050
N   1.754569  15.900980    1.29739
C   1.340650  16.219380    0.03373
N   0.817392  17.492314    0.11949
C   0.794265  17.923919    1.42893
O   1.428880  15.542910   -0.98657
O   0.394001  19.016772    1.83503
H   1.848494  17.110082    3.01228
H   1.701831  14.936932    1.62596
H   0.400617  18.004684   -0.67323
N   4.758199  16.903650    2.17050
N   5.216569  15.900980    1.29739
C   4.802650  16.219380    0.03373
N   4.279392  17.492314    0.11949
C   4.256265  17.923919    1.42893
O   4.890880  15.542910   -0.98657
O   3.856001  19.016772    1.83503
H   5.310494  17.110082    3.01228
H   5.163831  14.936932    1.62596
H   3.862617  18.004684   -0.67323
N   8.220199  16.903650    2.17050
N   8.678569  15.900980    1.29739
C   8.264650  16.219380    0.03373
N   7.741392  17.492314    0.11949
C   7.718265  17.923919    1.42893
O   8.352880  15.542910   -0.98657
O   7.318001  19.016772    1.83503
H   8.772494  17.110082    3.01228
H   8.625831  14.936932    1.62596
H   7.324617  18.004684   -0.67323

16a_triazolidinedione.wfx

