%nprocs=4
%mem=2GB
#p b3lyp aug-cc-pvtz output=wfx scf=(conver=6) int=(grid=ultrafine)

title

0 1
 N        8.220199000    16.903650000     2.170500000
 N        8.678569000    15.900980000     1.297390000
 C        7.718265000    17.923919000     1.428930000
 H        8.772494000    17.110082000     3.012280000
 C        8.264650000    16.219380000     0.033730000
 H        8.625831000    14.936932000     1.625960000
 N        7.741392000    17.492314000     0.119490000
 O        7.318001000    19.016772000     1.835030000
 O        8.352880000    15.542910000    -0.986570000
 H        7.324617000    18.004684000    -0.673230000
 N        1.296199000    16.903650000     2.170500000
 N        1.754569000    15.900980000     1.297390000
 C        0.794265000    17.923919000     1.428930000
 H        1.848494000    17.110082000     3.012280000
 C        1.340650000    16.219380000     0.033730000
 H        1.701831000    14.936932000     1.625960000
 N        0.817392000    17.492314000     0.119490000
 O        0.394001000    19.016772000     1.835030000
 O        1.428880000    15.542910000    -0.986570000
 H        0.400617000    18.004684000    -0.673230000

16a_triazolidinedione_di13.wfx

