%nprocs=4
%mem=2GB
#p b3lyp aug-cc-pvtz output=wfx scf=(conver=6) int=(grid=ultrafine)

title

0 1
N  -0.508443   1.631479    4.17868
C  -0.094523   1.949880    5.44234
N   0.428735   3.222814    5.35659
C   0.451861   3.654419    4.04715
O  -0.182753   1.273410    6.46265
O   0.852126   4.747272    3.64104
H  -0.602367   2.840582    2.46380
H  -0.455705   0.667432    3.85012
H   0.845509   3.735184    6.14930
N   1.196054   2.122350    8.78165
N   0.737684   3.125021    9.65476
C   1.151603   2.806620   10.91842
N   1.674861   1.533686   10.83266
C   1.697988   1.102081    9.52322
O   1.063373   3.483090   11.93872
O   2.098252   0.009228    9.11712
H   0.643759   1.915918    7.93987
H   0.790422   4.089068    9.32620
H   2.091636   1.021316   11.62538
N   2.542325   6.878850    7.64657
N   3.000696   7.881521    6.77347
C   2.586777   7.563120    5.50981
N   2.063518   6.290186    5.59556
C   2.040392   5.858581    6.90500
O   2.675006   8.239590    4.48951
O   1.640127   4.765728    7.31111
H   3.094620   6.672418    8.48836
H   2.947958   8.845568    7.10203
H   1.646744   5.777816    4.80285

16b_triazolidinedione.wfx

