%nprocs=4
%mem=2GB
#p b3lyp aug-cc-pvtz output=wfx scf=(conver=6) int=(grid=ultrafine)

title

0 1
 N        2.542325000     6.878850000     7.646570000
 N        3.000696000     7.881521000     6.773470000
 C        2.040392000     5.858581000     6.905000000
 H        3.094620000     6.672418000     8.488360000
 C        2.586777000     7.563120000     5.509810000
 H        2.947958000     8.845568000     7.102030000
 N        2.063518000     6.290186000     5.595560000
 O        1.640127000     4.765728000     7.311110000
 O        2.675006000     8.239590000     4.489510000
 H        1.646744000     5.777816000     4.802850000
 N       -0.050072000     2.634150000     3.305580000
 N       -0.508443000     1.631479000     4.178680000
 C        0.451861000     3.654419000     4.047150000
 H       -0.602367000     2.840582000     2.463800000
 C       -0.094523000     1.949880000     5.442340000
 H       -0.455705000     0.667432000     3.850120000
 N        0.428735000     3.222814000     5.356590000
 O        0.852126000     4.747272000     3.641040000
 O       -0.182753000     1.273410000     6.462650000
 H        0.845509000     3.735184000     6.149300000

16b_triazolidinedione_di13.wfx

