%nprocs=4
%mem=2GB
#p b3lyp aug-cc-pvtz output=wfx scf=(conver=6) int=(grid=ultrafine)

title

0 1
 N        1.196054000     2.122350000     8.781650000
 N        0.737684000     3.125021000     9.654760000
 C        1.697988000     1.102081000     9.523220000
 H        0.643759000     1.915918000     7.939870000
 C        1.151603000     2.806620000    10.918420000
 H        0.790422000     4.089068000     9.326200000
 N        1.674861000     1.533686000    10.832660000
 O        2.098252000     0.009228000     9.117120000
 O        1.063373000     3.483090000    11.938720000
 H        2.091636000     1.021316000    11.625380000

16b_triazolidinedione_mon2.wfx

