%nprocs=4
%mem=2GB
#p b3lyp aug-cc-pvtz output=wfx scf=(conver=6) int=(grid=ultrafine)

title

0 1
 N        3.000696000     7.881521000     6.773470000
 C        2.040392000     5.858581000     6.905000000
 H        3.094620000     6.672418000     8.488360000
 C        2.586777000     7.563120000     5.509810000
 H        2.947958000     8.845568000     7.102030000
 N        2.063518000     6.290186000     5.595560000
 O        1.640127000     4.765728000     7.311110000
 O        2.675006000     8.239590000     4.489510000
 H        1.646744000     5.777816000     4.802850000

16b_triazolidinedione_mon3.wfx

