%nprocs=4
%mem=2GB
#p b3lyp aug-cc-pvtz output=wfx scf=(conver=6) int=(grid=ultrafine)

title

0 1
t[ 12 15 17 18 16 19 20 13 14 21 22] of 2-Oxazolidinone #1, B3LYP-D*/TZP geometry       
 N        0.567048000     4.838445000     5.370440000
 C        0.173717000     4.046721000     4.211990000
 C        0.147555000     6.109764000     5.290130000
 H        0.969993000     4.457730000     6.230060000
 C       -0.266649000     5.158913000     3.244880000
 H       -0.630481000     3.355750000     4.460110000
 H        1.012720000     3.476585000     3.817060000
 O       -0.442292000     6.333394000     4.087220000
 O        0.233157000     7.002241000     6.125740000
 H        0.495568000     5.398370000     2.504980000
 H       -1.210198000     4.958202000     2.750780000
 N        1.432652000     2.001945000     8.637450000
 C        1.825983000     1.210221000     9.795900000
 C        1.852144000     3.273264000     8.717760000
 H        1.029707000     1.621230000     7.777830000
 C        2.266349000     2.322413000    10.763010000
 H        2.630180000     0.519250000     9.547780000
 H        0.986979000     0.640085000    10.190830000
 O        2.441991000     3.496894000     9.920670000
 O        1.766543000     4.165741000     7.882150000
 H        1.504131000     2.561870000    11.502910000
 H        3.209898000     2.121702000    11.257110000

17a_oxazolidinone_di12.wfx

