%nprocs=4
%mem=2GB
#p b3lyp aug-cc-pvtz output=wfx scf=(conver=6) int=(grid=ultrafine)

title

0 1
N   7.885048  10.511445    5.37044
O   6.875708  12.006394    4.08722
O   7.551157  12.675241    6.12574
C   7.491717   9.719721    4.21199
C   7.051351  10.831913    3.24488
C   7.465555  11.782764    5.29013
H   8.287993  10.130730    6.23006
H   6.687519   9.028750    4.46011
H   8.330720   9.149585    3.81706
H   7.813568  11.071370    2.50498
H   6.107802  10.631202    2.75078
N   8.750652   7.674945    8.63745
O   9.759991   9.169894    9.92067
O   9.084543   9.838741    7.88215
C   9.143983   6.883221    9.79590
C   9.584349   7.995413   10.76301
C   9.170144   8.946264    8.71776
H   8.347707   7.294230    7.77783
H   9.948180   6.192250    9.54778
H   8.304979   6.313085   10.19083
H   8.822131   8.234870   11.50291
H  10.527898   7.794702   11.25711
N   6.112281   9.344055   10.03973
O   5.102941   7.849106    8.75652
O   5.778390   7.180259   10.79504
C   5.718950  10.135779    8.88128
C   5.278584   9.023587    7.91418
C   5.692788   8.072736    9.95942
H   6.515226   9.724770   10.89935
H   4.914753  10.826750    9.12941
H   6.557953  10.705915    8.48635
H   6.040801   8.784130    7.17428
H   4.335035   9.224298    7.42007

17b_oxazolidinone.wfx

