%nprocs=4
%mem=2GB
#p b3lyp aug-cc-pvtz output=wfx scf=(conver=6) int=(grid=ultrafine)

title

0 1
 C        5.718950000    10.135779000     8.881280000
 C        5.692788000     8.072736000     9.959420000
 H        6.515226000     9.724770000    10.899350000
 C        5.278584000     9.023587000     7.914180000
 H        4.914753000    10.826750000     9.129410000
 H        6.557953000    10.705915000     8.486350000
 O        5.102941000     7.849106000     8.756520000
 O        5.778390000     7.180259000    10.795040000
 H        6.040801000     8.784130000     7.174280000
 H        4.335035000     9.224298000     7.420070000

17b_oxazolidinone_mon3.wfx

