%nprocs=4
%mem=2GB
#p b3lyp aug-cc-pvtz output=wfx scf=(conver=6) int=(grid=ultrafine)

title

0 1
       
 N        8.750652000     7.674945000     8.637450000
 C        9.143983000     6.883221000     9.795900000
 C        9.170144000     8.946264000     8.717760000
 H        8.347707000     7.294230000     7.777830000
 C        9.584349000     7.995413000    10.763010000
 H        9.948180000     6.192250000     9.547780000
 H        8.304979000     6.313085000    10.190830000
 O        9.759991000     9.169894000     9.920670000
 O        9.084543000     9.838741000     7.882150000
 H        8.822131000     8.234870000    11.502910000
 H       10.527898000     7.794702000    11.257110000
 N        6.112281000     9.344055000    10.039730000
 C        5.718950000    10.135779000     8.881280000
 C        5.692788000     8.072736000     9.959420000
 H        6.515226000     9.724770000    10.899350000
 C        5.278584000     9.023587000     7.914180000
 H        4.914753000    10.826750000     9.129410000
 H        6.557953000    10.705915000     8.486350000
 O        5.102941000     7.849106000     8.756520000
 O        5.778390000     7.180259000    10.795040000
 H        6.040801000     8.784130000     7.174280000
 H        4.335035000     9.224298000     7.420070000

17b_oxazolidinone_di13.wfx

