%nprocs=4
%mem=2GB
#p b3lyp aug-cc-pvtz output=wfx scf=(conver=6) int=(grid=ultrafine)

title

0 1
       
 N        4.978186000     2.001945000    -0.701140000
 C        5.371517000     1.210221000     0.457310000
 C        5.397678000     3.273264000    -0.620830000
 H        4.575240000     1.621230000    -1.560760000
 C        5.811882000     2.322413000     1.424420000
 H        6.175714000     0.519250000     0.209180000
 H        4.532513000     0.640085000     0.852240000
 O        5.987525000     3.496894000     0.582070000
 O        5.312076000     4.165741000    -1.456450000
 H        5.049665000     2.561870000     2.164310000
 H        6.755431000     2.121702000     1.918520000
 N       10.523419000     6.507555000     3.968150000
 C       10.916750000     7.299279000     5.126610000
 C       10.942911000     5.236236000     4.048470000
 H       10.120473000     6.888270000     3.108540000
 C       11.357116000     6.187087000     6.093710000
 H       11.720947000     7.990250000     4.878480000
 H       10.077746000     7.869415000     5.521540000
 O       11.532758000     5.012606000     5.251370000
 O       10.857310000     4.343759000     3.212850000
 H       10.594898000     5.947630000     6.833610000
 H       12.300665000     6.387798000     6.587820000

17c_oxazolidinone_di13.wfx

