%nprocs=4
%mem=2GB
#p b3lyp aug-cc-pvtz output=wfx scf=(conver=6) int=(grid=ultrafine)

title

0 1
 O        8.283701000     1.247560000    10.220655000
 C        7.308933000     1.166794000     9.233983000
 C        7.948435000     0.465551000    11.318173000
 O        7.420089000     1.800274000     8.226152000
 C        6.220124000     0.225430000     9.672661000
 O        8.665671000     0.447837000    12.276282000
 C        6.647384000    -0.247572000    11.060514000
 H        5.272356000     0.761343000     9.680066000
 H        6.127530000    -0.570006000     8.936711000
 H        6.819889000    -1.321087000    11.123636000
 H        5.938151000     0.017222000    11.843364000

18a_succinic_anhydride_mon1.wfx

