%nprocs=4
%mem=2GB
#p b3lyp aug-cc-pvtz output=wfx scf=(conver=6) int=(grid=ultrafine)

title

0 1
 O       11.005451000     2.267090000    13.288345000
 C       10.030683000     2.347856000    14.275017000
 C       10.670185000     3.049099000    12.190827000
 O       10.141839000     1.714376000    15.282848000
 C        8.941874000     3.289220000    13.836339000
 O       11.387421000     3.066813000    11.232718000
 C        9.369134000     3.762222000    12.448486000
 H        7.994106000     2.753307000    13.828934000
 H        8.849280000     4.084656000    14.572289000
 H        9.541639000     4.835737000    12.385364000
 H        8.659901000     3.497428000    11.665636000

18a_succinic_anhydride_mon2.wfx

