%nprocs=4
%mem=2GB
#p b3lyp aug-cc-pvtz output=wfx scf=(conver=6) int=(grid=ultrafine)

title

0 1
 O        8.046799000    11.791510000     7.411095000
 C        9.021567000    11.710744000     8.397767000
 C        8.382065000    11.009501000     6.313577000
 O        8.910411000    12.344224000     9.405598000
 C       10.110376000    10.769380000     7.959089000
 O        7.664829000    10.991787000     5.355468000
 C        9.683116000    10.296378000     6.571236000
 H       11.058144000    11.305293000     7.951684000
 H       10.202970000     9.973944000     8.695039000
 H        9.510611000     9.222863000     6.508114000
 H       10.392349000    10.561172000     5.788386000
 O        8.046799000    11.791510000    19.165595000
 C        9.021567000    11.710744000    20.152267000
 C        8.382065000    11.009501000    18.068077000
 O        8.910411000    12.344224000    21.160098000
 C       10.110376000    10.769380000    19.713589000
 O        7.664829000    10.991787000    17.109968000
 C        9.683116000    10.296378000    18.325736000
 H       11.058144000    11.305293000    19.706184000
 H       10.202970000     9.973944000    20.449539000
 H        9.510611000     9.222863000    18.262614000
 H       10.392349000    10.561172000    17.542886000

18b_succinic_anhydride_di13.wfx

