%nprocs=4
%mem=2GB
#p b3lyp aug-cc-pvtz output=wfx scf=(conver=6) int=(grid=ultrafine)

title

0 1
 O       11.005451000     9.296390000    13.288345000
 C       10.030683000     9.377156000    14.275017000
 C       10.670185000    10.078399000    12.190827000
 O       10.141839000     8.743676000    15.282848000
 C        8.941874000    10.318520000    13.836339000
 O       11.387421000    10.096113000    11.232718000
 C        9.369134000    10.791522000    12.448486000
 H        7.994106000     9.782607000    13.828934000
 H        8.849280000    11.113956000    14.572289000
 H        9.541639000    11.865037000    12.385364000
 H        8.659901000    10.526728000    11.665636000

18b_succinic_anhydride_mon1.wfx

