%nprocs=4
%mem=2GB
#p b3lyp aug-cc-pvtz output=wfx scf=(conver=6) int=(grid=ultrafine)

title

0 1
 O        2.840201000     1.247560000    21.975155000
 C        1.865433000     1.166794000    20.988483000
 C        2.504935000     0.465551000    23.072673000
 O        1.976589000     1.800274000    19.980652000
 C        0.776624000     0.225430000    21.427161000
 O        3.222171000     0.447837000    24.030782000
 C        1.203884000    -0.247572000    22.815014000
 H       -0.171144000     0.761343000    21.434566000
 H        0.684030000    -0.570006000    20.691211000
 H        1.376389000    -1.321087000    22.878136000
 H        0.494651000     0.017222000    23.597864000
 O        2.840201000     8.276860000    21.975155000
 C        1.865433000     8.196094000    20.988483000
 C        2.504935000     7.494851000    23.072673000
 O        1.976589000     8.829574000    19.980652000
 C        0.776624000     7.254730000    21.427161000
 O        3.222171000     7.477137000    24.030782000
 C        1.203884000     6.781728000    22.815014000
 H       -0.171144000     7.790643000    21.434566000
 H        0.684030000     6.459294000    20.691211000
 H        1.376389000     5.708213000    22.878136000
 H        0.494651000     7.046522000    23.597864000

18c_succinic_anhydride_di12.wfx

