%nprocs=4
%mem=2GB
#p b3lyp aug-cc-pvtz output=wfx scf=(conver=6) int=(grid=ultrafine)

title

0 1
 O        2.840201000     8.276860000    21.975155000
 C        1.865433000     8.196094000    20.988483000
 C        2.504935000     7.494851000    23.072673000
 O        1.976589000     8.829574000    19.980652000
 C        0.776624000     7.254730000    21.427161000
 O        3.222171000     7.477137000    24.030782000
 C        1.203884000     6.781728000    22.815014000
 H       -0.171144000     7.790643000    21.434566000
 H        0.684030000     6.459294000    20.691211000
 H        1.376389000     5.708213000    22.878136000
 H        0.494651000     7.046522000    23.597864000
 O        2.603299000     4.762210000    19.165595000
 C        3.578067000     4.681444000    20.152267000
 C        2.938565000     3.980201000    18.068077000
 O        3.466911000     5.314924000    21.160098000
 C        4.666876000     3.740080000    19.713589000
 O        2.221329000     3.962487000    17.109968000
 C        4.239616000     3.267078000    18.325736000
 H        5.614644000     4.275993000    19.706184000
 H        4.759470000     2.944644000    20.449539000
 H        4.067111000     2.193563000    18.262614000
 H        4.948849000     3.531872000    17.542886000

18c_succinic_anhydride_di13.wfx

