%nprocs=4
%mem=2GB
#p b3lyp aug-cc-pvtz output=wfx scf=(conver=6) int=(grid=ultrafine)

title

0 1
 C       11.571117000    17.459389000    10.029140000
 C       12.037210000    18.392292000    10.951510000
 C       10.569132000    17.809497000     9.128070000
 H       11.996168000    16.464449000    10.009170000
 H       12.818468000    18.132054000    11.653400000
 C       11.496168000    19.675303000    10.970130000
 H       10.226016000    17.086790000     8.402250000
 C       10.028090000    19.092508000     9.146690000
 C       10.494183000    20.025411000    10.069060000
 H       11.839284000    20.398010000    11.695950000
 H        9.246832000    19.352746000     8.444790000
 H       10.069132000    21.020351000    10.089030000
 C       14.171733000    20.025411000     6.679440000
 C       13.705640000    19.092508000     7.601810000
 C       15.173718000    19.675303000     5.778370000
 H       13.746682000    21.020351000     6.659470000
 H       12.924382000    19.352746000     8.303710000
 C       14.246682000    17.809497000     7.620430000
 H       15.516834000    20.398010000     5.052550000
 C       15.714760000    18.392292000     5.796990000
 C       15.248667000    17.459389000     6.719360000
 H       13.903566000    17.086790000     8.346250000
 H       16.496018000    18.132054000     5.095090000
 H       15.673718000    16.464449000     6.739330000

19a_benzene_di13.wfx

