%nprocs=4
%mem=2GB
#p b3lyp aug-cc-pvtz output=wfx scf=(conver=6) int=(grid=ultrafine)

title

0 1
C  10.494183  12.773789   13.41876
C  10.028090  13.706692   12.49639
C  11.496168  13.123897   14.31983
H  10.069132  11.778849   13.43873
H   9.246832  13.446454   11.79449
H  11.839284  12.401190   15.04565
C  11.571117  15.339811   13.37884
C  12.037210  14.406908   14.30121
C  10.569132  14.989703   12.47777
H  11.996168  16.334751   13.35887
H  12.818468  14.667146   15.00310
H  10.226016  15.712410   11.75195
C  15.248667  15.339811   10.06906
C  15.714760  14.406908    9.14669
C  14.246682  14.989703   10.97013
H  15.673718  16.334751   10.08903
H  16.496018  14.667146    8.44479
H  13.903566  15.712410   11.69595
C  14.171733  12.773789   10.02914
C  13.705640  13.706692   10.95151
C  15.173718  13.123897    9.12807
H  13.746682  11.778849   10.00917
H  12.924382  13.446454   11.65340
H  15.516834  12.401190    8.40225
C  11.571117   8.088189   10.02914
C  12.037210   9.021092   10.95151
C  10.569132   8.438297    9.12807
H  11.996168   7.093249   10.00917
H  12.818468   8.760854   11.65340
H  10.226016   7.715590    8.40225
C  10.494183  10.654211   10.06906
C  10.028090   9.721308    9.14669
C  11.496168  10.304103   10.97013
H  10.069132  11.649151   10.08903
H   9.246832   9.981546    8.44479
H  11.839284  11.026810   11.69595

19b_benzene.wfx

