%nprocs=4
%mem=2GB
#p b3lyp aug-cc-pvtz output=wfx scf=(conver=6) int=(grid=ultrafine)

title

0 1
 25 26 27 28 29 33 30 32 31 36 35 34] of Benzene #2, B3LYP-D*/TZP geometry 
 C       15.248667000    15.339811000    10.069060000
 C       15.714760000    14.406908000     9.146690000
 C       14.246682000    14.989703000    10.970130000
 H       15.673718000    16.334751000    10.089030000
 H       16.496018000    14.667146000     8.444790000
 C       15.173718000    13.123897000     9.128070000
 H       13.903566000    15.712410000    11.695950000
 C       13.705640000    13.706692000    10.951510000
 C       14.171733000    12.773789000    10.029140000
 H       15.516834000    12.401190000     8.402250000
 H       12.924382000    13.446454000    11.653400000
 H       13.746682000    11.778849000    10.009170000
 C       11.571117000     8.088189000    10.029140000
 C       12.037210000     9.021092000    10.951510000
 C       10.569132000     8.438297000     9.128070000
 H       11.996168000     7.093249000    10.009170000
 H       12.818468000     8.760854000    11.653400000
 C       11.496168000    10.304103000    10.970130000
 H       10.226016000     7.715590000     8.402250000
 C       10.028090000     9.721308000     9.146690000
 C       10.494183000    10.654211000    10.069060000
 H       11.839284000    11.026810000    11.695950000
 H        9.246832000     9.981546000     8.444790000
 H       10.069132000    11.649151000    10.089030000

19b_benzene_di23.wfx

