%nprocs=4
%mem=2GB
#p b3lyp aug-cc-pvtz output=wfx scf=(conver=6) int=(grid=ultrafine)

title

0 1
 C       -0.538467000    20.025411000    13.378840000
 C       -1.004560000    19.092508000    14.301210000
 C        0.463518000    19.675303000    12.477770000
 H       -0.963518000    21.020351000    13.358870000
 H       -1.785818000    19.352746000    15.003100000
 C       -0.463518000    17.809497000    14.319830000
 H        0.806634000    20.398010000    11.751950000
 C        1.004560000    18.392292000    12.496390000
 C        0.538467000    17.459389000    13.418760000
 H       -0.806634000    17.086790000    15.045650000
 H        1.785818000    18.132054000    11.794490000
 H        0.963518000    16.464449000    13.438730000

19c_benzene_mon2.wfx

