%nprocs=4
%mem=2GB
#p b3lyp aug-cc-pvtz output=wfx scf=(conver=6) int=(grid=ultrafine)

title

0 1
C  -0.538467  20.025411    6.67944
C  -1.004560  19.092508    7.60181
C   0.463518  19.675303    5.77837
H  -0.963518  21.020351    6.65947
H  -1.785818  19.352746    8.30371
H   0.806634  20.398010    5.05255
C   0.538467  17.459389    6.71936
C   1.004560  18.392292    5.79699
C  -0.463518  17.809497    7.62043
H   0.963518  16.464449    6.73933
H   1.785818  18.132054    5.09509
H  -0.806634  17.086790    8.34625
C  -0.538467  20.025411   13.37884
C  -1.004560  19.092508   14.30121
C   0.463518  19.675303   12.47777
H  -0.963518  21.020351   13.35887
H  -1.785818  19.352746   15.00310
H   0.806634  20.398010   11.75195
C   0.538467  17.459389   13.41876
C   1.004560  18.392292   12.49639
C  -0.463518  17.809497   14.31983
H   0.963518  16.464449   13.43873
H   1.785818  18.132054   11.79449
H  -0.806634  17.086790   15.04565
C   4.216017  17.459389   10.02914
C   4.682110  18.392292   10.95151
C   3.214032  17.809497    9.12807
H   4.641068  16.464449   10.00917
H   5.463368  18.132054   11.65340
H   2.870916  17.086790    8.40225
C   3.139083  20.025411   10.06906
C   2.672990  19.092508    9.14669
C   4.141068  19.675303   10.97013
H   2.714032  21.020351   10.08903
H   1.891732  19.352746    8.44479
H   4.484184  20.398010   11.69595

19c_benzene.wfx

