%nprocs=4
%mem=2GB
#p b3lyp aug-cc-pvtz output=wfx scf=(conver=6) int=(grid=ultrafine)

title

0 1
 C       -1.812866000     3.535867000     7.854400000
 C       -3.019070000     4.394092000     7.792090000
 O       -0.712671000     4.235658000     7.949890000
 O       -1.820850000     2.303290000     7.796570000
 H       -2.805931000     5.454418000     7.726600000
 C       -4.302655000     4.018833000     7.784560000
 H        0.111684000     3.656381000     7.952260000
 H       -5.037740000     4.808884000     7.706250000
 C       -4.936171000     2.675625000     7.888200000
 O       -4.226933000     1.572740000     7.922750000
 O       -6.160859000     2.589500000     7.962160000
 H       -3.229793000     1.745595000     7.834420000

20a_maleic_acid_mon1.wfx

