%nprocs=4
%mem=2GB
#p b3lyp aug-cc-pvtz output=wfx scf=(conver=6) int=(grid=ultrafine)

title

0 1
 C       -3.945878000     1.506583000    10.966910000
 C       -5.152081000     0.648358000    10.904590000
 O       -2.845682000     0.806792000    11.062400000
 O       -3.953861000     2.739160000    10.909080000
 H       -4.938942000    -0.411968000    10.839110000
 C       -6.435667000     1.023617000    10.897060000
 H       -2.021327000     1.386069000    11.064760000
 H       -7.170751000     0.233566000    10.818750000
 C       -7.069182000     2.366825000    11.000710000
 O       -6.359945000     3.469710000    11.035260000
 O       -8.293870000     2.452950000    11.074660000
 H       -5.362805000     3.296855000    10.946920000

20a_maleic_acid_mon2.wfx

