%nprocs=4
%mem=2GB
#p b3lyp aug-cc-pvtz output=wfx scf=(conver=6) int=(grid=ultrafine)

title

0 1
 C        3.529022000     1.506583000    10.966910000
 C        2.322819000     0.648358000    10.904590000
 O        4.629218000     0.806792000    11.062400000
 O        3.521039000     2.739160000    10.909080000
 H        2.535958000    -0.411968000    10.839110000
 C        1.039233000     1.023617000    10.897060000
 H        5.453573000     1.386069000    11.064760000
 H        0.304149000     0.233566000    10.818750000
 C        0.405718000     2.366825000    11.000710000
 O        1.114955000     3.469710000    11.035260000
 O       -0.818970000     2.452950000    11.074660000
 H        2.112095000     3.296855000    10.946920000

20a_maleic_acid_mon3.wfx

