%nprocs=4
%mem=2GB
#p b3lyp aug-cc-pvtz output=wfx scf=(conver=6) int=(grid=ultrafine)

title

0 1
 C       15.269945000     1.506583000     4.741900000
 C       14.063742000     0.648358000     4.679590000
 O       16.370140000     0.806792000     4.837390000
 O       15.261961000     2.739160000     4.684070000
 H       14.276880000    -0.411968000     4.614100000
 C       12.780156000     1.023617000     4.672060000
 H       17.194496000     1.386069000     4.839760000
 H       12.045071000     0.233566000     4.593740000
 C       12.146641000     2.366825000     4.775700000
 O       12.855878000     3.469710000     4.810250000
 O       10.921953000     2.452950000     4.849650000
 H       13.853018000     3.296855000     4.721920000

20b_maleic_acid_mon3.wfx

