%nprocs=4
%mem=2GB
#p b3lyp aug-cc-pvtz output=wfx scf=(conver=6) int=(grid=ultrafine)

title

0 1
 O        0.080654000    12.312048000     7.623703000
 C       -0.510475000    11.316440000     7.221364000
 C        0.018253000     9.957365000     7.479383000
 C       -1.783484000    11.439808000     6.471979000
 H        0.942935000     9.888301000     8.038752000
 C       -0.634441000     8.873192000     7.047503000
 H       -2.138694000    12.448619000     6.295076000
 C       -2.436179000    10.355635000     6.040099000
 C       -1.907451000     8.996560000     6.298118000
 H       -0.279231000     7.864381000     7.224406000
 H       -3.360861000    10.424699000     5.480730000
 O       -2.498580000     8.000952000     5.895778000
 O        5.823654000    12.312048000     7.623703000
 C        5.232525000    11.316440000     7.221364000
 C        5.761253000     9.957365000     7.479383000
 C        3.959516000    11.439808000     6.471979000
 H        6.685935000     9.888301000     8.038752000
 C        5.108559000     8.873192000     7.047503000
 H        3.604306000    12.448619000     6.295076000
 C        3.306821000    10.355635000     6.040099000
 C        3.835549000     8.996560000     6.298118000
 H        5.463769000     7.864381000     7.224406000
 H        2.382139000    10.424699000     5.480730000
 O        3.244420000     8.000952000     5.895778000

21c_p-benzoquinone_di12.wfx

