%nprocs=4
%mem=2GB
#p b3lyp aug-cc-pvtz output=wfx scf=(conver=6) int=(grid=ultrafine)

title

0 1
 C       11.857268000     2.590668000     3.165030000
 N       13.217787000     2.691780000     3.303760000
 N       11.391294000     1.295520000     3.149130000
 O       11.116065000     3.549066000     3.068250000
 C       14.026684000     1.606034000     3.415690000
 H       13.521240000     3.470230000     3.266870000
 C       12.142726000     0.153091000     3.245990000
 H       10.530444000     1.172007000     3.036030000
 C       13.550472000     0.353582000     3.393360000
 H       14.958939000     1.811846000     3.487680000
 O       11.574463000    -0.953695000     3.197940000
 H       14.097099000    -0.398507000     3.445650000
 C        9.980172000     2.590668000     6.301430000
 N       11.340691000     2.691780000     6.440160000
 N        9.514198000     1.295520000     6.285530000
 O        9.238969000     3.549066000     6.204640000
 C       12.149588000     1.606034000     6.552090000
 H       11.644144000     3.470230000     6.403270000
 C       10.265630000     0.153091000     6.382380000
 H        8.653349000     1.172007000     6.172430000
 C       11.673376000     0.353582000     6.529760000
 H       13.081843000     1.811846000     6.624070000
 O        9.697367000    -0.953695000     6.334330000
 H       12.220003000    -0.398507000     6.582050000

22b_uracil_di23.wfx

