%nprocs=4
%mem=2GB
#p b3lyp aug-cc-pvtz output=wfx scf=(conver=6) int=(grid=ultrafine)

title

0 1
 C        9.980172000     2.590668000     6.301430000
 N       11.340691000     2.691780000     6.440160000
 N        9.514198000     1.295520000     6.285530000
 O        9.238969000     3.549066000     6.204640000
 C       12.149588000     1.606034000     6.552090000
 H       11.644144000     3.470230000     6.403270000
 C       10.265630000     0.153091000     6.382380000
 H        8.653349000     1.172007000     6.172430000
 C       11.673376000     0.353582000     6.529760000
 H       13.081843000     1.811846000     6.624070000
 O        9.697367000    -0.953695000     6.334330000
 H       12.220003000    -0.398507000     6.582050000
 C       13.734364000     2.590668000     0.028640000
 N       15.094883000     2.691780000     0.167360000
 N       13.268390000     1.295520000     0.012730000
 O       12.993161000     3.549066000    -0.068150000
 C       15.903780000     1.606034000     0.279300000
 H       15.398336000     3.470230000     0.130470000
 C       14.019822000     0.153091000     0.109590000
 H       12.407540000     1.172007000    -0.100360000
 C       15.427568000     0.353582000     0.256960000
 H       16.836035000     1.811846000     0.351280000
 O       13.451559000    -0.953695000     0.061540000
 H       15.974195000    -0.398507000     0.309250000

22b_uracil_di23.wfx

