%nprocs=4
%mem=2GB
#p b3lyp aug-cc-pvtz output=wfx scf=(conver=6) int=(grid=ultrafine)

title

0 1
 C       11.857268000     2.590668000     3.165030000
 N       13.217787000     2.691780000     3.303760000
 N       11.391294000     1.295520000     3.149130000
 O       11.116065000     3.549066000     3.068250000
 C       14.026684000     1.606034000     3.415690000
 H       13.521240000     3.470230000     3.266870000
 C       12.142726000     0.153091000     3.245990000
 H       10.530444000     1.172007000     3.036030000
 C       13.550472000     0.353582000     3.393360000
 H       14.958939000     1.811846000     3.487680000
 O       11.574463000    -0.953695000     3.197940000
 H       14.097099000    -0.398507000     3.445650000

22b_uracil_mon2.wfx

