%nprocs=4
%mem=2GB
#p b3lyp aug-cc-pvtz output=wfx scf=(conver=6) int=(grid=ultrafine)

title

0 1
2 23 16 18 14 19 15 17 24 20] of Uracil #3, B3LYP-D*/TZP geometry   
 C        0.418444000     8.778668000     6.244160000
 N       -0.942075000     8.879780000     6.105440000
 N        0.884418000     7.483520000     6.260060000
 O        1.159647000     9.737066000     6.340950000
 C       -1.750972000     7.794034000     5.993500000
 H       -1.245528000     9.658230000     6.142320000
 C        0.132986000     6.341091000     6.163210000
 H        1.745268000     7.360007000     6.373160000
 C       -1.274760000     6.541582000     6.015830000
 H       -2.683227000     7.999846000     5.921520000
 O        0.701249000     5.234305000     6.211260000
 H       -1.821387000     5.789493000     5.963550000
 C        8.264540000     9.785332000     3.107760000
 N        6.904021000     9.684220000     2.969040000
 N        8.730514000    11.080480000     3.123660000
 O        9.005743000     8.826934000     3.204550000
 C        6.095124000    10.769966000     2.857100000
 H        6.600568000     8.905770000     3.005920000
 C        7.979082000    12.222909000     3.026810000
 H        9.591364000    11.203993000     3.236760000
 C        6.571336000    12.022418000     2.879430000
 H        5.162869000    10.564154000     2.785120000
 O        8.547345000    13.329695000     3.074860000
 H        6.024709000    12.774507000     2.827150000

22c_uracil_di12.wfx

