%nprocs=4
%mem=2GB
#p b3lyp aug-cc-pvtz output=wfx scf=(conver=6) int=(grid=ultrafine)

title

0 1
 C        8.264540000     9.785332000     3.107760000
 N        6.904021000     9.684220000     2.969040000
 N        8.730514000    11.080480000     3.123660000
 O        9.005743000     8.826934000     3.204550000
 C        6.095124000    10.769966000     2.857100000
 H        6.600568000     8.905770000     3.005920000
 C        7.979082000    12.222909000     3.026810000
 H        9.591364000    11.203993000     3.236760000
 C        6.571336000    12.022418000     2.879430000
 H        5.162869000    10.564154000     2.785120000
 O        8.547345000    13.329695000     3.074860000
 H        6.024709000    12.774507000     2.827150000
 C        6.387444000     9.785332000     6.244160000
 N        5.026925000     9.684220000     6.105440000
 N        6.853418000    11.080480000     6.260060000
 O        7.128647000     8.826934000     6.340950000
 C        4.218028000    10.769966000     5.993500000
 H        4.723472000     8.905770000     6.142320000
 C        6.101986000    12.222909000     6.163210000
 H        7.714268000    11.203993000     6.373160000
 C        4.694240000    12.022418000     6.015830000
 H        3.285773000    10.564154000     5.921520000
 O        6.670249000    13.329695000     6.211260000
 H        4.147613000    12.774507000     5.963550000

22c_uracil_di23.wfx

