%nprocs=4
%mem=2GB
#p b3lyp aug-cc-pvtz output=wfx scf=(conver=6) int=(grid=ultrafine)

title

0 1
 O        5.182699000    16.441388000    12.924526000
 C        4.607734000    17.463600000    12.185981000
 C        6.282511000    16.948067000    13.599658000
 H        3.740297000    17.187494000    11.615566000
 C        5.334430000    18.581936000    12.396288000
 C        6.386037000    18.256376000    13.291762000
 H        6.807996000    16.247115000    14.221560000
 C        5.782934000    20.034432000    12.273536000
 C        6.942898000    19.669284000    13.293216000
 H        6.133753000    20.326980000    11.284835000
 H        5.070732000    20.779526000    12.625356000
 H        7.951979000    19.773757000    12.900092000
 H        6.883915000    20.176469000    14.254138000

23a_cyclobutylfuran_mon2.wfx

