%nprocs=4
%mem=2GB
#p b3lyp aug-cc-pvtz output=wfx scf=(conver=6) int=(grid=ultrafine)

title

0 1
 O        2.528199000    16.441388000     8.891474000
 C        1.953234000    17.463600000     9.630019000
 C        3.628011000    16.948067000     8.216342000
 H        1.085797000    17.187494000    10.200434000
 C        2.679930000    18.581936000     9.419712000
 C        3.731537000    18.256376000     8.524238000
 H        4.153496000    16.247115000     7.594440000
 C        3.128434000    20.034432000     9.542464000
 C        4.288398000    19.669284000     8.522784000
 H        3.479253000    20.326980000    10.531165000
 H        2.416232000    20.779526000     9.190644000
 H        5.297479000    19.773757000     8.915908000
 H        4.229415000    20.176469000     7.561862000
 O       -0.126301000    16.441388000    12.924526000
 C       -0.701266000    17.463600000    12.185981000
 C        0.973511000    16.948067000    13.599658000
 H       -1.568703000    17.187494000    11.615566000
 C        0.025430000    18.581936000    12.396288000
 C        1.077037000    18.256376000    13.291762000
 H        1.498996000    16.247115000    14.221560000
 C        0.473934000    20.034432000    12.273536000
 C        1.633898000    19.669284000    13.293216000
 H        0.824753000    20.326980000    11.284835000
 H       -0.238268000    20.779526000    12.625356000
 H        2.642979000    19.773757000    12.900092000
 H        1.574915000    20.176469000    14.254138000

23a_cyclobutylfuran_di13.wfx

