%nprocs=4
%mem=2GB
#p b3lyp aug-cc-pvtz output=wfx scf=(conver=6) int=(grid=ultrafine)

title

0 1
 C        9.633653000    11.628619000     4.884362000
 C        8.707305000    11.331693000     5.820469000
 O        9.722723000    13.004064000     4.800063000
 H       10.281234000    11.085372000     4.222642000
 C        7.822565000    10.485713000     6.727250000
 C        8.199060000    12.552670000     6.334786000
 C        8.830902000    13.563949000     5.701520000
 C        7.238541000    11.850722000     7.284636000
 H        8.363944000     9.898852000     7.468624000
 H        7.100363000     9.851695000     6.215159000
 H        8.812724000    14.637743000     5.706166000
 H        7.416903000    12.017496000     8.343466000
 H        6.183244000    12.004402000     7.070160000
 C        5.083914000     6.706119000     9.633419000
 C        6.010262000     6.409193000     8.697313000
 O        4.994844000     8.081564000     9.717719000
 H        4.436332000     6.162872000    10.295140000
 C        6.895002000     5.563213000     7.790532000
 C        6.518507000     7.630170000     8.182996000
 C        5.886665000     8.641449000     8.816262000
 C        7.479025000     6.928222000     7.233146000
 H        6.353623000     4.976352000     7.049157000
 H        7.617204000     4.929195000     8.302622000
 H        5.904843000     9.715243000     8.811616000
 H        7.300663000     7.094996000     6.174316000
 H        8.534323000     7.081902000     7.447622000

23b_cyclobutylfuran_di23.wfx

