%nprocs=4
%mem=2GB
#p b3lyp aug-cc-pvtz output=wfx scf=(conver=6) int=(grid=ultrafine)

title

0 1
 C        5.083914000     6.706119000     9.633419000
 C        6.010262000     6.409193000     8.697313000
 O        4.994844000     8.081564000     9.717719000
 H        4.436332000     6.162872000    10.295140000
 C        6.895002000     5.563213000     7.790532000
 C        6.518507000     7.630170000     8.182996000
 C        5.886665000     8.641449000     8.816262000
 C        7.479025000     6.928222000     7.233146000
 H        6.353623000     4.976352000     7.049157000
 H        7.617204000     4.929195000     8.302622000
 H        5.904843000     9.715243000     8.811616000
 H        7.300663000     7.094996000     6.174316000
 H        8.534323000     7.081902000     7.447622000
 C        4.631509000    12.983881000     9.723623000
 C        3.705161000    13.280807000    10.659730000
 O        4.720578000    11.608436000     9.639323000
 H        5.279090000    13.527128000     9.061902000
 C        2.820421000    14.126787000    11.566510000
 C        3.196916000    12.059830000    11.174046000
 C        3.828758000    11.048551000    10.540780000
 C        2.236397000    12.761778000    12.123896000
 H        3.361800000    14.713648000    12.307885000
 H        2.098219000    14.760805000    11.054420000
 H        3.810580000     9.974757000    10.545426000
 H        2.414759000    12.595004000    13.182726000
 H        1.181100000    12.608098000    11.909420000

23b_cyclobutylfuran_di23.wfx

