%nprocs=4
%mem=2GB
#p b3lyp aug-cc-pvtz output=wfx scf=(conver=6) int=(grid=ultrafine)

title

0 1
 C        9.633653000    11.628619000     4.884362000
 C        8.707305000    11.331693000     5.820469000
 O        9.722723000    13.004064000     4.800063000
 H       10.281234000    11.085372000     4.222642000
 C        7.822565000    10.485713000     6.727250000
 C        8.199060000    12.552670000     6.334786000
 C        8.830902000    13.563949000     5.701520000
 C        7.238541000    11.850722000     7.284636000
 H        8.363944000     9.898852000     7.468624000
 H        7.100363000     9.851695000     6.215159000
 H        8.812724000    14.637743000     5.706166000
 H        7.416903000    12.017496000     8.343466000
 H        6.183244000    12.004402000     7.070160000

23b_cyclobutylfuran_mon2.wfx

