%nprocs=4
%mem=2GB
#p b3lyp aug-cc-pvtz output=wfx scf=(conver=6) int=(grid=ultrafine)

title

0 1
 C        5.035769000     8.061381000    14.472680000
 C        5.962117000     8.358307000    13.536573000
 O        4.946700000     6.685936000    14.556980000
 H        4.388188000     8.604628000    15.134400000
 C        6.846857000     9.204287000    12.629792000
 C        6.470362000     7.137330000    13.022256000
 C        5.838521000     6.126051000    13.655522000
 C        7.430881000     7.839278000    12.072406000
 H        6.305478000     9.791148000    11.888418000
 H        7.569059000     9.838305000    13.141883000
 H        5.856698000     5.052257000    13.650876000
 H        7.252519000     7.672504000    11.013576000
 H        8.486179000     7.685598000    12.286882000

23c_cyclobutylfuran_mon3.wfx

