%nprocs=4
%mem=4GB
#p pbepbe aug-cc-pvtz output=wfx scf=(conver=6) int=(grid=ultrafine)

title

0 1
si 0.000000000000000 0.000000000000000 -1.376238445707165
c 0.000000000000000 -1.353577380076958 -0.076013081775788
c 0.000000000000000 1.353577380076958 -0.076013081775788
c 0.000000000000000 -0.743168208677477 1.123967254298024
c 0.000000000000000 0.743168208677477 1.123967254298024
h -1.204337128284215 0.000000000000000 -2.249363357827280
h 1.204337128284215 0.000000000000000 -2.249363357827280
h 0.000000000000000 -2.431036682621500 -0.181131111266875
h 0.000000000000000 2.431036682621500 -0.181131111266875
h 0.000000000000000 -1.277650358757074 2.070659519425503
h 0.000000000000000 1.277650358757074 2.070659519425503

03r.wfx

