%nprocs=4
%mem=4GB
#p pbepbe aug-cc-pvtz output=wfx scf=(conver=6) int=(grid=ultrafine)

title

0 1
c -0.604402889938157 0.096284469790687 1.304476064616843
si -0.749113430578295 1.431227344857664 0.000000000000000
c 1.541445411152058 -0.090640583737387 0.697741545373862
c -1.157812141704331 -1.042047956555081 0.704230739914588
c -0.604402889938157 0.096284469790687 -1.304476064616843
c 1.541445411152058 -0.090640583737387 -0.697741545373862
c -1.157812141704331 -1.042047956555081 -0.704230739914588
h -0.575681557395673 0.195104714984016 2.383393083269070
h -2.101622811154523 2.060162522313181 0.000000000000000
h 0.270932856339566 2.509471647245435 0.000000000000000
h 1.876086546578251 0.789608834754923 1.233398558059777
h 1.647479626974043 -1.020870748710275 1.237946992136536
h -1.437213302969571 -1.927869487735022 1.267424187252169
h -0.575681557395673 0.195104714984016 -2.383393083269070
h 1.876086546578251 0.789608834754923 -1.233398558059777
h 1.647479626974043 -1.020870748710275 -1.237946992136536
h -1.437213302969571 -1.927869487735022 -1.267424187252169

03ts.wfx

