%nprocs=4
%mem=4GB
#p pbepbe aug-cc-pvtz output=wfx scf=(conver=6) int=(grid=ultrafine)

title

0 1
h -1.968356490203491 1.067066299626247 1.343071377126931
c -1.114165250351370 1.014576284887348 0.684217192124360
c 0.229222126864292 0.729326204790720 1.099450308719496
c -1.114165250351370 1.014576284887348 -0.684217192124360
h 1.982437619157397 0.706300198325145 0.000000000000000
n 1.034778353059974 1.057822297030582 0.000000000000000
c 0.229222126864292 -1.334113374611571 0.706597198408540
h 0.615932235450329 0.869636244188993 2.100188589721208
c 0.229222126864292 -1.334113374611571 -0.706597198408540
h -1.968356490203491 1.067066299626247 -1.343071377126931
c 0.229222126864292 0.729326204790720 -1.099450308719496
h 0.615932235450329 0.869636244188993 -2.100188589721208
h -0.655306121506290 -1.663530467110049 -1.238016347628064
h -0.655306121506290 -1.663530467110049 1.238016347628064
h 1.154843386773566 -1.565022439449548 1.225775344190859
h 1.154843386773566 -1.565022439449548 -1.225775344190859

06ts.wfx

