%nprocs=4
%mem=4GB
#p pbepbe aug-cc-pvtz output=wfx scf=(conver=6) int=(grid=ultrafine)

title

0 1
c 0.981149794013189 0.324632067915792 0.000000000000000
h 1.054798545373127 1.400225303677972 0.000000000000000
h 1.835715328363767 -0.330590510561773 0.000000000000000
n -0.218204408400793 -0.218681823525826 0.000000000000000
h -0.201087784802797 -1.242257212747272 0.000000000000000
n -1.370406818490929 0.397915311711575 0.000000000000000
h -2.081964656055559 -0.331243136470474 0.000000000000000

13r_8.wfx

