%nprocs=4
%mem=4GB
#p pbepbe aug-cc-pvtz output=wfx scf=(conver=6) int=(grid=ultrafine)

title

0 1
c -0.624216151292465 0.285939831843014 0.000000000000000
h -0.680921404045873 1.363542972087691 0.000000000000000
h -1.489691954128798 -0.358473885471914 0.000000000000000
n 0.555737977613544 -0.269246129626403 0.000000000000000
h 0.553689972914529 -1.301767292373152 0.000000000000000
o 1.685401558939052 0.280004503540773 0.000000000000000

13r_7.wfx

