%nprocs=4
%mem=4GB
#p pbepbe aug-cc-pvtz output=wfx scf=(conver=6) int=(grid=ultrafine)

title

0 1
c -0.109085030630465 -0.000069000019374 1.848679519098866
c 0.400562112475600 -0.000032000008984 0.608786170943750
c -0.400562112475600 -0.000025000007021 -0.608786170943750
h 1.482677416327525 0.000010000002811 0.474076133117927
h -1.482677416327525 -0.000059000016568 -0.474076133117927
c 0.109084030630186 0.000021000005895 -1.848679519098866
h 1.183013332183524 0.000282000079184 -2.022593567932961
h 0.526435147820042 0.000053000014884 2.729085766312017
h -1.183013332183524 0.000495000138995 2.022594567933240
h -0.526435147820042 -0.000149000041837 -2.729085766312017

1,3-Butadiene.wfx

