%nprocs=4
%mem=4GB
#p pbepbe aug-cc-pvtz output=wfx scf=(conver=6) int=(grid=ultrafine)

title

0 1
h 0.000000000000000 0.000000000000000 0.000000000000000
c 0.000000000000000 0.000000000000000 1.087522305370180
c 1.211746340251596 0.000000000000000 4.333341216777974
c -0.065187018304152 1.363516382867775 1.732037486346436
h 1.994644560085036 0.978297274700400 1.044957293418161
h -0.608089170748039 1.472137413367950 2.666650748780611
h -0.149889042088005 2.230695626366852 1.081860303780319
c 1.242524348893889 0.609410171118965 1.738458488149417
c 1.843474517637331 -0.032288009066292 2.962682831904766
h 0.007429002086023 -2.980676836957380 2.902031814874302
c -0.013773003867384 -1.893411531659368 2.912480817808319
h 1.869531524953994 0.074348020876511 5.195720458929238
c -1.390168390351505 -1.276139358332796 2.970246834028694
h -0.971476272785102 -1.935396543448524 0.907856254920956
h -1.522300427453445 -0.349174098046132 3.520990988674574
h -2.245294630466173 -1.943816545812810 3.040038853625902
c -0.623562175092770 -1.242275348823968 1.670248468996425
h 2.930891822978027 -0.021434006018549 2.952233828970744
h 0.272971076648754 0.531337149196498 4.461500252764316
c 1.210739339968834 -1.292834363020657 3.553979997937702
h 1.915152537764117 -2.045011574227809 3.901453095506203

Cis-triscyclopropacyclohexane.wfx

