%nprocs=4
%mem=4GB
#p pbepbe aug-cc-pvtz output=wfx scf=(conver=6) int=(grid=ultrafine)

title

0 1
c 0.221544062208333 0.249942070182337 1.128504316877700
c 1.132010317862167 0.791597222276073 0.000000000000000
h 1.207345339015819 1.883548528889893 0.000000000000000
c 0.221544062208333 0.249942070182337 -1.128504316877700
h 2.137499600197928 0.351766098773952 0.000000000000000
c -1.125762316107759 0.792001222389515 -0.670298188215982
h 0.510542143357380 0.477305134024610 -2.157748605883735
h 1.122286315131718 -1.761738494686313 1.177749330705426
h -1.960780550576208 1.012169284211475 -1.328726373098931
c -1.125762316107759 0.792001222389515 0.670298188215982
h 1.122286315131718 -1.761738494686313 -1.177749330705426
c 0.221544062208333 -1.279495359275141 -0.780534219169641
h -0.644462180961377 -1.794869503989315 1.206609338809151
h 0.510542143357380 0.477305134024610 2.157748605883735
h -1.960780550576208 1.012169284211475 1.328726373098931
h -0.644462180961377 -1.794869503989315 -1.206609338809151
c 0.221544062208333 -1.279495359275141 0.780534219169641

Norbornene.wfx

