%nprocs=4
%mem=4GB
#p pbepbe aug-cc-pvtz output=wfx scf=(conver=6) int=(grid=ultrafine)

title

0 1
c -0.106083029787524 -1.203716337996815 1.140653320289073
c 0.188734052995468 0.119843033651255 1.482489416274735
c -0.106083029787524 1.242319348836326 0.702964197388415
c -0.106083029787524 1.242319348836326 -0.702964197388415
c 0.188734052995468 0.119843033651255 -1.482489416274735
c -0.106083029787524 -1.203716337996815 -1.140653320289073
h 0.841280236226783 0.296276083192665 2.340488657196122
h -0.016579004655293 2.220000623363757 1.175106329963285
h -0.016579004655293 2.220000623363757 -1.175106329963285
h 0.841280236226783 0.296276083192665 -2.340488657196122
h 0.447050125529175 -1.999204561365455 -1.641147460825026
h -1.131155317622088 -1.467749412135826 -0.936255262895238
h 0.447050125529175 -1.999204561365455 1.641147460825026
h -1.131155317622088 -1.467749412135826 0.936255262895238

TS2.wfx

