%nprocs=4
%mem=4GB
#p pbepbe aug-cc-pvtz output=wfx scf=(conver=6) int=(grid=ultrafine)

title

0 1
O -2.658000000000000 -1.237000000000000 -0.512000000000000
C -3.698000000000000 -0.698000000000000 -0.210000000000000
O -4.911000000000000 -1.193000000000000 -0.523000000000000
H -4.749000000000000 -2.012000000000000 -1.015000000000000
C -3.832000000000000 0.593000000000000 0.575000000000000
H -4.345000000000000 0.374000000000000 1.510000000000000
H -4.458000000000000 1.271000000000000 -0.001000000000000
N -2.558000000000000 1.201000000000000 0.828000000000000
H -1.949000000000000 0.761000000000000 1.512000000000000
C -1.915000000000000 1.776000000000000 -0.234000000000000
O -2.478000000000000 2.101000000000000 -1.269000000000000
C -0.410000000000000 1.883000000000000 -0.035000000000000
H -0.164000000000000 2.236000000000000 0.965000000000000
H 0.001000000000000 2.552000000000000 -0.783000000000000
N 0.150000000000000 0.558000000000000 -0.208000000000000
H 0.381000000000000 0.205000000000000 -1.127000000000000
C 0.104000000000000 -0.359000000000000 0.772000000000000
O -0.261000000000000 -0.116000000000000 1.928000000000000
C 0.583000000000000 -1.742000000000000 0.369000000000000
N 0.454000000000000 -1.914000000000000 -1.075000000000000
H -0.532000000000000 -1.990000000000000 -1.306000000000000
H 0.893000000000000 -2.782000000000000 -1.358000000000000
H -0.026000000000000 -2.440000000000000 0.951000000000000
C 2.048000000000000 -1.910000000000000 0.814000000000000
H 2.059000000000000 -1.926000000000000 1.904000000000000
H 2.398000000000000 -2.885000000000000 0.466000000000000
C 2.943000000000000 -0.815000000000000 0.311000000000000
C 3.523000000000000 -0.872000000000000 -0.958000000000000
H 3.369000000000000 -1.747000000000000 -1.576000000000000
C 4.292000000000000 0.186000000000000 -1.439000000000000
H 4.735000000000000 0.126000000000000 -2.424000000000000
C 4.492000000000000 1.319000000000000 -0.651000000000000
H 5.090000000000000 2.139000000000000 -1.023000000000000
C 3.925000000000000 1.383000000000000 0.620000000000000
H 4.083000000000000 2.255000000000000 1.241000000000000
C 3.158000000000000 0.323000000000000 1.096000000000000
H 2.708000000000000 0.378000000000000 2.080000000000000

FGG252.wfx

