%nprocs=4
%mem=4GB
#p pbepbe aug-cc-pvtz output=wfx scf=(conver=6) int=(grid=ultrafine)

title

0 1
O 3.045000000000000 -2.140000000000000 0.347000000000000
C 2.938000000000000 -0.975000000000000 0.040000000000000
O 3.107000000000000 -0.546000000000000 -1.212000000000000
H 3.057000000000000 0.441000000000000 -1.218000000000000
C 2.648000000000000 0.113000000000000 1.073000000000000
H 3.556000000000000 0.710000000000000 1.190000000000000
H 2.428000000000000 -0.379000000000000 2.015000000000000
N 1.542000000000000 0.998000000000000 0.747000000000000
H 0.699000000000000 0.998000000000000 1.313000000000000
C 1.653000000000000 1.952000000000000 -0.189000000000000
O 2.638000000000000 2.061000000000000 -0.932000000000000
C 0.477000000000000 2.912000000000000 -0.283000000000000
H 0.690000000000000 3.604000000000000 -1.091000000000000
H 0.391000000000000 3.461000000000000 0.656000000000000
N -0.779000000000000 2.244000000000000 -0.545000000000000
H -1.200000000000000 2.235000000000000 -1.464000000000000
C -1.510000000000000 1.683000000000000 0.434000000000000
O -1.132000000000000 1.622000000000000 1.609000000000000
C -2.861000000000000 1.137000000000000 -0.017000000000000
N -2.916000000000000 1.083000000000000 -1.477000000000000
H -3.878000000000000 1.061000000000000 -1.789000000000000
H -2.486000000000000 0.219000000000000 -1.794000000000000
H -3.597000000000000 1.875000000000000 0.314000000000000
C -3.157000000000000 -0.194000000000000 0.702000000000000
H -3.157000000000000 -0.010000000000000 1.776000000000000
H -4.159000000000000 -0.513000000000000 0.411000000000000
C -2.146000000000000 -1.248000000000000 0.357000000000000
C -2.260000000000000 -2.008000000000000 -0.814000000000000
H -3.146000000000000 -1.908000000000000 -1.431000000000000
C -1.265000000000000 -2.915000000000000 -1.179000000000000
H -1.368000000000000 -3.487000000000000 -2.091000000000000
C -0.147000000000000 -3.088000000000000 -0.367000000000000
H 0.639000000000000 -3.774000000000000 -0.650000000000000
C -0.046000000000000 -2.374000000000000 0.826000000000000
H 0.810000000000000 -2.532000000000000 1.466000000000000
C -1.032000000000000 -1.459000000000000 1.180000000000000
H -0.955000000000000 -0.901000000000000 2.104000000000000

FGG215.wfx

