%nprocs=4
%mem=4GB
#p pbepbe aug-cc-pvtz output=wfx scf=(conver=6) int=(grid=ultrafine)

title

0 1
O -1.902000000000000 1.592000000000000 0.373000000000000
C -3.032000000000000 1.852000000000000 0.027000000000000
O -3.612000000000000 3.052000000000000 0.225000000000000
H -2.953000000000000 3.598000000000000 0.679000000000000
C -3.976000000000000 0.909000000000000 -0.692000000000000
H -4.189000000000000 1.321000000000000 -1.676000000000000
H -4.908000000000000 0.877000000000000 -0.132000000000000
N -3.429000000000000 -0.412000000000000 -0.806000000000000
H -2.672000000000000 -0.557000000000000 -1.468000000000000
C -3.345000000000000 -1.157000000000000 0.338000000000000
O -3.988000000000000 -0.914000000000000 1.350000000000000
C -2.306000000000000 -2.265000000000000 0.261000000000000
H -2.341000000000000 -2.777000000000000 -0.699000000000000
H -2.478000000000000 -2.968000000000000 1.069000000000000
N -0.996000000000000 -1.660000000000000 0.412000000000000
H -0.662000000000000 -1.385000000000000 1.328000000000000
C -0.403000000000000 -1.014000000000000 -0.613000000000000
O -0.805000000000000 -1.058000000000000 -1.779000000000000
C 0.852000000000000 -0.250000000000000 -0.232000000000000
N 0.800000000000000 0.139000000000000 1.173000000000000
H 1.710000000000000 0.482000000000000 1.460000000000000
H 0.140000000000000 0.903000000000000 1.281000000000000
H 0.904000000000000 0.594000000000000 -0.925000000000000
C 2.066000000000000 -1.156000000000000 -0.481000000000000
H 1.985000000000000 -2.026000000000000 0.172000000000000
H 2.022000000000000 -1.499000000000000 -1.516000000000000
C 3.351000000000000 -0.426000000000000 -0.220000000000000
C 4.034000000000000 -0.580000000000000 0.989000000000000
H 3.653000000000000 -1.277000000000000 1.726000000000000
C 5.197000000000000 0.143000000000000 1.250000000000000
H 5.716000000000000 0.008000000000000 2.190000000000000
C 5.693000000000000 1.032000000000000 0.300000000000000
H 6.597000000000000 1.591000000000000 0.498000000000000
C 5.021000000000000 1.193000000000000 -0.912000000000000
H 5.405000000000000 1.876000000000000 -1.657000000000000
C 3.859000000000000 0.470000000000000 -1.167000000000000
H 3.342000000000000 0.593000000000000 -2.111000000000000

FGG366.wfx

