%nprocs=4
%mem=4GB
#p pbepbe aug-cc-pvtz output=wfx scf=(conver=6) int=(grid=ultrafine)

title

0 1
O 2.261000000000000 -2.612000000000000 1.127000000000000
C 2.571000000000000 -1.683000000000000 0.417000000000000
O 2.497000000000000 -1.750000000000000 -0.916000000000000
H 2.776000000000000 -0.881000000000000 -1.295000000000000
C 3.072000000000000 -0.354000000000000 0.971000000000000
H 4.083000000000000 -0.176000000000000 0.599000000000000
H 3.094000000000000 -0.430000000000000 2.053000000000000
N 2.233000000000000 0.771000000000000 0.601000000000000
H 1.562000000000000 1.171000000000000 1.256000000000000
C 2.247000000000000 1.283000000000000 -0.639000000000000
O 2.917000000000000 0.807000000000000 -1.565000000000000
C 1.371000000000000 2.512000000000000 -0.830000000000000
H 1.573000000000000 2.902000000000000 -1.822000000000000
H 1.630000000000000 3.261000000000000 -0.080000000000000
N -0.042000000000000 2.209000000000000 -0.725000000000000
H -0.663000000000000 2.260000000000000 -1.521000000000000
C -0.655000000000000 2.051000000000000 0.459000000000000
O -0.059000000000000 2.025000000000000 1.542000000000000
C -2.175000000000000 1.935000000000000 0.384000000000000
N -2.628000000000000 1.919000000000000 -1.006000000000000
H -3.533000000000000 2.362000000000000 -1.087000000000000
H -2.744000000000000 0.956000000000000 -1.311000000000000
H -2.540000000000000 2.851000000000000 0.853000000000000
C -2.649000000000000 0.739000000000000 1.233000000000000
H -2.153000000000000 0.796000000000000 2.201000000000000
H -3.724000000000000 0.842000000000000 1.393000000000000
C -2.362000000000000 -0.568000000000000 0.551000000000000
C -3.338000000000000 -1.169000000000000 -0.253000000000000
H -4.322000000000000 -0.720000000000000 -0.315000000000000
C -3.069000000000000 -2.348000000000000 -0.946000000000000
H -3.838000000000000 -2.801000000000000 -1.557000000000000
C -1.815000000000000 -2.943000000000000 -0.841000000000000
H -1.603000000000000 -3.861000000000000 -1.372000000000000
C -0.835000000000000 -2.364000000000000 -0.035000000000000
H 0.133000000000000 -2.834000000000000 0.070000000000000
C -1.108000000000000 -1.182000000000000 0.650000000000000
H -0.350000000000000 -0.745000000000000 1.289000000000000

FGG444.wfx

