%nprocs=4
%mem=4GB
#p pbepbe aug-cc-pvtz output=wfx scf=(conver=6) int=(grid=ultrafine)

title

0 1
O 3.437000000000000 0.225000000000000 0.523000000000000
C 2.386000000000000 -0.336000000000000 0.324000000000000
O 1.276000000000000 -0.123000000000000 1.062000000000000
H 1.526000000000000 0.582000000000000 1.682000000000000
C 2.185000000000000 -1.346000000000000 -0.790000000000000
H 2.886000000000000 -2.157000000000000 -0.599000000000000
H 2.482000000000000 -0.860000000000000 -1.717000000000000
N 0.860000000000000 -1.881000000000000 -0.914000000000000
H 0.146000000000000 -1.358000000000000 -1.408000000000000
C 0.434000000000000 -2.811000000000000 -0.014000000000000
O 1.178000000000000 -3.394000000000000 0.761000000000000
C -1.073000000000000 -3.026000000000000 -0.034000000000000
H -1.304000000000000 -3.863000000000000 0.616000000000000
H -1.416000000000000 -3.236000000000000 -1.047000000000000
N -1.761000000000000 -1.842000000000000 0.438000000000000
H -1.890000000000000 -1.668000000000000 1.426000000000000
C -2.030000000000000 -0.804000000000000 -0.373000000000000
O -1.785000000000000 -0.802000000000000 -1.583000000000000
C -2.715000000000000 0.373000000000000 0.320000000000000
N -2.394000000000000 0.357000000000000 1.745000000000000
H -1.462000000000000 0.736000000000000 1.879000000000000
H -3.031000000000000 0.957000000000000 2.254000000000000
H -3.788000000000000 0.178000000000000 0.230000000000000
C -2.419000000000000 1.686000000000000 -0.423000000000000
H -2.711000000000000 1.558000000000000 -1.465000000000000
H -3.055000000000000 2.461000000000000 0.011000000000000
C -0.981000000000000 2.112000000000000 -0.342000000000000
C -0.511000000000000 2.836000000000000 0.761000000000000
H -1.204000000000000 3.129000000000000 1.540000000000000
C 0.827000000000000 3.226000000000000 0.848000000000000
H 1.167000000000000 3.795000000000000 1.704000000000000
C 1.715000000000000 2.906000000000000 -0.176000000000000
H 2.752000000000000 3.202000000000000 -0.112000000000000
C 1.254000000000000 2.202000000000000 -1.288000000000000
H 1.934000000000000 1.969000000000000 -2.097000000000000
C -0.078000000000000 1.801000000000000 -1.366000000000000
H -0.436000000000000 1.255000000000000 -2.228000000000000

FGG412.wfx

