%nprocs=4
%mem=4GB
#p pbepbe aug-cc-pvtz output=wfx scf=(conver=6) int=(grid=ultrafine)

title

0 1
O -3.065000000000000 0.117000000000000 -2.327000000000000
C -3.029000000000000 -0.032000000000000 -1.129000000000000
O -3.155000000000000 0.992000000000000 -0.274000000000000
H -2.990000000000000 0.658000000000000 0.642000000000000
C -2.846000000000000 -1.396000000000000 -0.469000000000000
H -2.855000000000000 -2.147000000000000 -1.251000000000000
H -3.677000000000000 -1.574000000000000 0.217000000000000
N -1.595000000000000 -1.507000000000000 0.261000000000000
H -0.848000000000000 -2.111000000000000 -0.072000000000000
C -1.402000000000000 -0.890000000000000 1.437000000000000
O -2.229000000000000 -0.122000000000000 1.947000000000000
C -0.085000000000000 -1.219000000000000 2.128000000000000
H -0.040000000000000 -2.292000000000000 2.315000000000000
H -0.075000000000000 -0.686000000000000 3.073000000000000
N 1.090000000000000 -0.845000000000000 1.364000000000000
H 1.478000000000000 0.078000000000000 1.493000000000000
C 1.524000000000000 -1.574000000000000 0.311000000000000
O 0.952000000000000 -2.605000000000000 -0.059000000000000
C 2.756000000000000 -1.048000000000000 -0.420000000000000
N 3.482000000000000 -2.091000000000000 -1.123000000000000
H 2.807000000000000 -2.631000000000000 -1.655000000000000
H 3.863000000000000 -2.746000000000000 -0.450000000000000
H 3.429000000000000 -0.586000000000000 0.305000000000000
C 2.321000000000000 0.033000000000000 -1.427000000000000
H 3.220000000000000 0.330000000000000 -1.968000000000000
H 1.634000000000000 -0.418000000000000 -2.147000000000000
C 1.675000000000000 1.208000000000000 -0.752000000000000
C 2.433000000000000 2.027000000000000 0.094000000000000
H 3.500000000000000 1.859000000000000 0.183000000000000
C 1.834000000000000 3.059000000000000 0.815000000000000
H 2.435000000000000 3.683000000000000 1.463000000000000
C 0.465000000000000 3.291000000000000 0.690000000000000
H -0.003000000000000 4.091000000000000 1.247000000000000
C -0.297000000000000 2.499000000000000 -0.168000000000000
H -1.357000000000000 2.673000000000000 -0.283000000000000
C 0.307000000000000 1.462000000000000 -0.879000000000000
H -0.292000000000000 0.849000000000000 -1.543000000000000

FGG55.wfx

