%nprocs=4
%mem=4GB
#p pbepbe aug-cc-pvtz output=wfx scf=(conver=6) int=(grid=ultrafine)

title

0 1
O 2.772000000000000 -1.458000000000000 0.254000000000000
C 3.803000000000000 -1.029000000000000 -0.208000000000000
O 4.964000000000000 -1.718000000000000 -0.212000000000000
H 4.772000000000000 -2.562000000000000 0.223000000000000
C 3.980000000000000 0.322000000000000 -0.871000000000000
H 4.274000000000000 0.161000000000000 -1.907000000000000
H 4.791000000000000 0.842000000000000 -0.367000000000000
N 2.784000000000000 1.111000000000000 -0.800000000000000
H 1.983000000000000 0.812000000000000 -1.350000000000000
C 2.471000000000000 1.681000000000000 0.401000000000000
O 3.272000000000000 1.831000000000000 1.313000000000000
C 1.003000000000000 2.064000000000000 0.519000000000000
H 0.642000000000000 2.520000000000000 -0.401000000000000
H 0.887000000000000 2.754000000000000 1.349000000000000
N 0.220000000000000 0.870000000000000 0.774000000000000
H 0.120000000000000 0.494000000000000 1.708000000000000
C -0.085000000000000 0.009000000000000 -0.211000000000000
O 0.135000000000000 0.226000000000000 -1.408000000000000
C -0.708000000000000 -1.302000000000000 0.258000000000000
N -1.025000000000000 -1.250000000000000 1.683000000000000
H -1.005000000000000 -2.180000000000000 2.079000000000000
H -1.967000000000000 -0.894000000000000 1.810000000000000
H 0.091000000000000 -2.034000000000000 0.120000000000000
C -1.886000000000000 -1.673000000000000 -0.661000000000000
H -1.538000000000000 -1.619000000000000 -1.692000000000000
H -2.177000000000000 -2.703000000000000 -0.449000000000000
C -3.056000000000000 -0.758000000000000 -0.445000000000000
C -4.094000000000000 -1.118000000000000 0.421000000000000
H -4.080000000000000 -2.098000000000000 0.884000000000000
C -5.152000000000000 -0.247000000000000 0.677000000000000
H -5.948000000000000 -0.547000000000000 1.346000000000000
C -5.185000000000000 1.004000000000000 0.067000000000000
H -6.005000000000000 1.682000000000000 0.260000000000000
C -4.160000000000000 1.373000000000000 -0.804000000000000
H -4.185000000000000 2.339000000000000 -1.289000000000000
C -3.104000000000000 0.502000000000000 -1.057000000000000
H -2.309000000000000 0.788000000000000 -1.734000000000000

FGG691.wfx

