%nprocs=4
%mem=4GB
#p pbepbe aug-cc-pvtz output=wfx scf=(conver=6) int=(grid=ultrafine)

title

0 1
O 1.014000000000000 -0.006000000000000 -1.163000000000000
C 2.026000000000000 0.038000000000000 -0.502000000000000
O 3.147000000000000 -0.642000000000000 -0.810000000000000
H 2.931000000000000 -1.160000000000000 -1.600000000000000
C 2.219000000000000 0.850000000000000 0.763000000000000
H 3.104000000000000 1.470000000000000 0.630000000000000
H 2.406000000000000 0.164000000000000 1.586000000000000
N 1.078000000000000 1.673000000000000 1.045000000000000
H 0.270000000000000 1.245000000000000 1.480000000000000
C 0.822000000000000 2.705000000000000 0.186000000000000
O 1.658000000000000 3.166000000000000 -0.577000000000000
C -0.624000000000000 3.178000000000000 0.212000000000000
H -0.695000000000000 4.101000000000000 -0.354000000000000
H -0.970000000000000 3.333000000000000 1.232000000000000
N -1.460000000000000 2.162000000000000 -0.399000000000000
H -1.455000000000000 2.031000000000000 -1.402000000000000
C -1.889000000000000 1.098000000000000 0.308000000000000
O -1.763000000000000 1.001000000000000 1.532000000000000
C -2.585000000000000 0.029000000000000 -0.532000000000000
N -2.036000000000000 0.055000000000000 -1.884000000000000
H -1.088000000000000 -0.311000000000000 -1.875000000000000
H -2.588000000000000 -0.528000000000000 -2.500000000000000
H -3.631000000000000 0.343000000000000 -0.602000000000000
C -2.566000000000000 -1.329000000000000 0.191000000000000
H -2.982000000000000 -1.187000000000000 1.188000000000000
H -3.230000000000000 -2.000000000000000 -0.357000000000000
C -1.202000000000000 -1.952000000000000 0.286000000000000
C -0.709000000000000 -2.746000000000000 -0.754000000000000
H -1.331000000000000 -2.931000000000000 -1.621000000000000
C 0.556000000000000 -3.327000000000000 -0.679000000000000
H 0.913000000000000 -3.947000000000000 -1.491000000000000
C 1.349000000000000 -3.127000000000000 0.449000000000000
H 2.327000000000000 -3.583000000000000 0.517000000000000
C 0.864000000000000 -2.347000000000000 1.499000000000000
H 1.462000000000000 -2.212000000000000 2.391000000000000
C -0.399000000000000 -1.764000000000000 1.417000000000000
H -0.780000000000000 -1.166000000000000 2.235000000000000

FGG99.wfx

