%nprocs=4
%mem=4GB
#p pbepbe aug-cc-pvtz output=wfx scf=(conver=6) int=(grid=ultrafine)

title

0 1
O -1.544800000000000 -0.508200000000000 -3.056650000000000
C -0.577150000000000 -1.235210000000000 -3.044060000000000
O 0.058160000000000 -1.648920000000000 -4.157880000000000
H -0.427750000000000 -1.256130000000000 -4.899140000000000
C 0.047950000000000 -1.822190000000000 -1.803000000000000
C -0.246770000000000 -3.318490000000000 -1.710790000000000
H 0.202160000000000 -3.702800000000000 -0.798820000000000
H -1.322100000000000 -3.485550000000000 -1.676780000000000
H 0.172290000000000 -3.843940000000000 -2.566170000000000
H 1.128280000000000 -1.673870000000000 -1.849930000000000
N -0.477240000000000 -1.089670000000000 -0.674380000000000
H -1.192400000000000 -0.407170000000000 -0.884140000000000
C 0.257680000000000 -0.964210000000000 0.453490000000000
O 1.254680000000000 -1.643350000000000 0.688730000000000
C -0.185180000000000 0.140730000000000 1.389710000000000
H -1.234980000000000 0.394870000000000 1.236120000000000
N -0.010300000000000 -0.305940000000000 2.744260000000000
H 0.658080000000000 -1.036290000000000 2.951210000000000
C -0.644580000000000 0.305240000000000 3.766750000000000
O -1.432010000000000 1.236810000000000 3.623940000000000
C -0.339240000000000 -0.279050000000000 5.137370000000000
H -1.193000000000000 -0.903290000000000 5.400300000000000
H -0.328890000000000 0.558630000000000 5.836840000000000
N 0.865340000000000 -1.105260000000000 5.137670000000000
H 1.687730000000000 -0.528930000000000 5.260080000000000
H 0.849420000000000 -1.754960000000000 5.911280000000000
C 0.675350000000000 1.391730000000000 1.092400000000000
H 0.326010000000000 2.185800000000000 1.752360000000000
H 1.706040000000000 1.145250000000000 1.351060000000000
C 0.574130000000000 1.788560000000000 -0.349510000000000
C 1.536770000000000 1.366690000000000 -1.272590000000000
H 2.400380000000000 0.815390000000000 -0.919390000000000
C 1.390830000000000 1.642170000000000 -2.630930000000000
H 2.148180000000000 1.315110000000000 -3.331290000000000
C 0.273520000000000 2.342260000000000 -3.084150000000000
H 0.156430000000000 2.556950000000000 -4.137560000000000
C -0.690700000000000 2.769580000000000 -2.173160000000000
H -1.558160000000000 3.314890000000000 -2.518980000000000
C -0.539220000000000 2.495110000000000 -0.815500000000000
H -1.287770000000000 2.830940000000000 -0.107210000000000

GFA01.wfx

