%nprocs=4
%mem=4GB
#p pbepbe aug-cc-pvtz output=wfx scf=(conver=6) int=(grid=ultrafine)

title

0 1
O 2.660070000000000 0.566010000000000 1.481910000000000
C 2.755230000000000 1.435450000000000 0.640420000000000
O 3.720220000000000 2.369410000000000 0.652150000000000
H 4.264890000000000 2.184260000000000 1.432460000000000
C 1.803300000000000 1.629180000000000 -0.515220000000000
C 1.016220000000000 2.929960000000000 -0.348240000000000
H 0.339620000000000 3.030040000000000 -1.192670000000000
H 0.431810000000000 2.896080000000000 0.570250000000000
H 1.688490000000000 3.784650000000000 -0.322020000000000
H 2.380210000000000 1.679440000000000 -1.440260000000000
N 0.951440000000000 0.472100000000000 -0.545540000000000
H 0.962660000000000 -0.127820000000000 0.262660000000000
C 0.249120000000000 0.107190000000000 -1.638220000000000
O 0.208740000000000 0.766180000000000 -2.672680000000000
C -0.541570000000000 -1.195940000000000 -1.485460000000000
H -0.232590000000000 -1.837000000000000 -2.310220000000000
N -0.249590000000000 -1.889140000000000 -0.255770000000000
H -0.649350000000000 -1.567810000000000 0.617860000000000
C 0.839290000000000 -2.699440000000000 -0.140620000000000
O 1.514930000000000 -3.079150000000000 -1.086740000000000
C 1.142070000000000 -3.114150000000000 1.293520000000000
H 2.210060000000000 -3.332850000000000 1.329030000000000
H 0.609770000000000 -4.047490000000000 1.478850000000000
N 0.680800000000000 -2.108070000000000 2.250260000000000
H 0.575590000000000 -2.515230000000000 3.169300000000000
H 1.371040000000000 -1.369790000000000 2.336680000000000
C -2.041240000000000 -0.884780000000000 -1.598410000000000
H -2.200460000000000 -0.389760000000000 -2.555470000000000
H -2.587950000000000 -1.827980000000000 -1.599020000000000
C -2.500180000000000 -0.008050000000000 -0.468430000000000
C -2.403250000000000 1.384780000000000 -0.567790000000000
H -2.052180000000000 1.822550000000000 -1.493960000000000
C -2.753950000000000 2.200090000000000 0.505290000000000
H -2.680570000000000 3.275270000000000 0.409390000000000
C -3.205040000000000 1.634700000000000 1.697520000000000
H -3.478570000000000 2.267940000000000 2.530360000000000
C -3.314470000000000 0.250140000000000 1.805910000000000
H -3.674730000000000 -0.196200000000000 2.722860000000000
C -2.966860000000000 -0.562840000000000 0.728100000000000
H -3.067680000000000 -1.638690000000000 0.810110000000000

GFA02.wfx

