%nprocs=4
%mem=4GB
#p pbepbe aug-cc-pvtz output=wfx scf=(conver=6) int=(grid=ultrafine)

title

0 1
O -0.110290000000000 5.178220000000000 -0.541300000000000
C -0.128130000000000 4.026910000000000 -0.903720000000000
O 0.530790000000000 3.609620000000000 -1.992450000000000
H 0.386760000000000 2.640790000000000 -2.101020000000000
C -0.914290000000000 2.930740000000000 -0.171680000000000
C -1.663570000000000 3.490060000000000 1.018240000000000
H -2.248610000000000 2.705980000000000 1.494920000000000
H -0.965220000000000 3.907660000000000 1.740550000000000
H -2.325090000000000 4.290090000000000 0.699550000000000
H -1.606450000000000 2.496460000000000 -0.898210000000000
N -0.032510000000000 1.857960000000000 0.273880000000000
H 0.228810000000000 1.791920000000000 1.258800000000000
C 0.429220000000000 0.910840000000000 -0.552680000000000
O 0.269210000000000 0.949240000000000 -1.782310000000000
C 1.221070000000000 -0.202180000000000 0.143700000000000
H 2.081910000000000 0.294270000000000 0.601760000000000
N 0.470280000000000 -0.823480000000000 1.217250000000000
H 0.017160000000000 -1.719490000000000 1.068940000000000
C 0.334490000000000 -0.284730000000000 2.440060000000000
O 0.758790000000000 0.831320000000000 2.758500000000000
C -0.428600000000000 -1.144470000000000 3.432150000000000
H -1.393360000000000 -0.657690000000000 3.573090000000000
H 0.102550000000000 -1.068690000000000 4.382690000000000
N -0.643430000000000 -2.502750000000000 2.945290000000000
H 0.120950000000000 -3.106550000000000 3.216450000000000
H -1.483990000000000 -2.897760000000000 3.341980000000000
C 1.714660000000000 -1.267830000000000 -0.842070000000000
H 2.032960000000000 -0.757080000000000 -1.749120000000000
H 2.585710000000000 -1.752750000000000 -0.400970000000000
C 0.680220000000000 -2.316330000000000 -1.155170000000000
C -0.336590000000000 -2.093140000000000 -2.091190000000000
H -0.363990000000000 -1.152240000000000 -2.622160000000000
C -1.300750000000000 -3.069080000000000 -2.331030000000000
H -2.076710000000000 -2.884690000000000 -3.061680000000000
C -1.269310000000000 -4.279530000000000 -1.639650000000000
H -2.019620000000000 -5.034520000000000 -1.830100000000000
C -0.260080000000000 -4.514340000000000 -0.709690000000000
H -0.219990000000000 -5.453660000000000 -0.175000000000000
C 0.705900000000000 -3.538010000000000 -0.472870000000000
H 1.499620000000000 -3.728420000000000 0.240120000000000

GFA08.wfx

