%nprocs=4
%mem=4GB
#p pbepbe aug-cc-pvtz output=wfx scf=(conver=6) int=(grid=ultrafine)

title

0 1
O 1.591590000000000 3.752120000000000 0.440060000000000
C 1.848100000000000 2.582760000000000 0.283010000000000
O 2.286820000000000 1.810330000000000 1.286980000000000
H 2.409910000000000 0.890660000000000 0.955040000000000
C 1.707020000000000 1.867290000000000 -1.069030000000000
C 1.280390000000000 2.831910000000000 -2.153780000000000
H 1.216990000000000 2.316820000000000 -3.110140000000000
H 0.311190000000000 3.263230000000000 -1.906220000000000
H 1.992410000000000 3.648150000000000 -2.230500000000000
H 2.671580000000000 1.411960000000000 -1.303760000000000
N 0.733940000000000 0.782110000000000 -0.988600000000000
H -0.218530000000000 0.991860000000000 -1.255560000000000
C 0.963360000000000 -0.367260000000000 -0.332150000000000
O 2.047420000000000 -0.625490000000000 0.212370000000000
C -0.211090000000000 -1.317410000000000 -0.236790000000000
H -0.806140000000000 -1.286830000000000 -1.151070000000000
N 0.293270000000000 -2.648300000000000 -0.057450000000000
H 1.235880000000000 -2.798270000000000 0.277500000000000
C -0.483280000000000 -3.718740000000000 -0.331180000000000
O -1.636730000000000 -3.633710000000000 -0.744200000000000
C 0.195430000000000 -5.062170000000000 -0.117950000000000
H 0.447500000000000 -5.435870000000000 -1.110100000000000
H -0.562120000000000 -5.732960000000000 0.290950000000000
N 1.419610000000000 -4.950880000000000 0.670370000000000
H 2.035340000000000 -5.729050000000000 0.481240000000000
H 1.207670000000000 -4.982670000000000 1.658920000000000
C -1.127280000000000 -0.891030000000000 0.939120000000000
H -1.917620000000000 -1.639970000000000 0.993860000000000
H -0.542270000000000 -0.928580000000000 1.859320000000000
C -1.683820000000000 0.481460000000000 0.710140000000000
C -1.160050000000000 1.592670000000000 1.377410000000000
H -0.408880000000000 1.449350000000000 2.144420000000000
C -1.562320000000000 2.883240000000000 1.038580000000000
H -1.125810000000000 3.731140000000000 1.547230000000000
C -2.501400000000000 3.075800000000000 0.026040000000000
H -2.809810000000000 4.076560000000000 -0.243520000000000
C -3.047440000000000 1.973950000000000 -0.633220000000000
H -3.787610000000000 2.117430000000000 -1.408940000000000
C -2.640540000000000 0.684820000000000 -0.291970000000000
H -3.061980000000000 -0.172300000000000 -0.804980000000000

GFA09.wfx

