%nprocs=4
%mem=4GB
#p pbepbe aug-cc-pvtz output=wfx scf=(conver=6) int=(grid=ultrafine)

title

0 1
O 0.759000000000000 5.306640000000000 0.880230000000000
C 0.858230000000000 4.337740000000000 0.166650000000000
O 2.035130000000000 3.926320000000000 -0.320620000000000
H 1.891470000000000 3.116370000000000 -0.864480000000000
C -0.346730000000000 3.493570000000000 -0.268930000000000
C -1.639760000000000 4.053210000000000 0.282880000000000
H -2.483580000000000 3.456970000000000 -0.059080000000000
H -1.616000000000000 4.051140000000000 1.370470000000000
H -1.769310000000000 5.081280000000000 -0.041690000000000
H -0.357540000000000 3.494290000000000 -1.362950000000000
N -0.196080000000000 2.107980000000000 0.164030000000000
H -0.847250000000000 1.722840000000000 0.848440000000000
C 0.586810000000000 1.234420000000000 -0.485000000000000
O 1.376110000000000 1.560090000000000 -1.382850000000000
C 0.428700000000000 -0.214120000000000 -0.022690000000000
H 0.516520000000000 -0.226490000000000 1.067780000000000
N -0.894600000000000 -0.711320000000000 -0.352270000000000
H -1.021000000000000 -1.438400000000000 -1.047230000000000
C -1.961900000000000 -0.492100000000000 0.435720000000000
O -1.970130000000000 0.292760000000000 1.388550000000000
C -3.186200000000000 -1.318810000000000 0.082000000000000
H -4.052880000000000 -0.662100000000000 0.168130000000000
H -3.275260000000000 -2.064430000000000 0.871650000000000
N -3.051170000000000 -1.993310000000000 -1.206630000000000
H -3.551170000000000 -2.870600000000000 -1.204920000000000
H -3.446860000000000 -1.430970000000000 -1.947940000000000
C 1.490930000000000 -1.113480000000000 -0.643590000000000
H 1.427560000000000 -1.036360000000000 -1.729330000000000
H 2.469200000000000 -0.727160000000000 -0.358950000000000
C 1.315020000000000 -2.535300000000000 -0.193460000000000
C 1.659040000000000 -2.914080000000000 1.107960000000000
H 2.103590000000000 -2.185310000000000 1.775460000000000
C 1.445150000000000 -4.216070000000000 1.551270000000000
H 1.721920000000000 -4.493970000000000 2.559120000000000
C 0.879840000000000 -5.161400000000000 0.695900000000000
H 0.715840000000000 -6.173720000000000 1.038470000000000
C 0.536890000000000 -4.797950000000000 -0.603960000000000
H 0.106470000000000 -5.527510000000000 -1.276440000000000
C 0.753950000000000 -3.492540000000000 -1.042190000000000
H 0.497660000000000 -3.217010000000000 -2.058460000000000

GFA06.wfx

