%nprocs=4
%mem=4GB
#p pbepbe aug-cc-pvtz output=wfx scf=(conver=6) int=(grid=ultrafine)

title

0 1
O -2.006810000000000 1.454370000000000 -1.716980000000000
C -2.253130000000000 0.423730000000000 -2.297290000000000
O -2.831460000000000 0.373930000000000 -3.515540000000000
H -2.971360000000000 1.296200000000000 -3.778700000000000
C -2.027960000000000 -0.977790000000000 -1.754150000000000
C -3.330030000000000 -1.504800000000000 -1.163220000000000
H -3.185260000000000 -2.520250000000000 -0.800960000000000
H -3.643180000000000 -0.877410000000000 -0.328250000000000
H -4.115090000000000 -1.506720000000000 -1.914920000000000
H -1.707440000000000 -1.600460000000000 -2.587400000000000
N -1.002850000000000 -0.976070000000000 -0.741530000000000
H -1.293680000000000 -0.869920000000000 0.220280000000000
C 0.240310000000000 -0.533250000000000 -1.071680000000000
O 0.581690000000000 -0.344300000000000 -2.233810000000000
C 1.163720000000000 -0.274900000000000 0.105540000000000
H 1.170570000000000 -1.139680000000000 0.772750000000000
N 2.486760000000000 -0.071720000000000 -0.411850000000000
H 2.619740000000000 0.035960000000000 -1.409240000000000
C 3.559820000000000 -0.190790000000000 0.395390000000000
O 3.481720000000000 -0.420620000000000 1.601180000000000
C 4.902680000000000 -0.036760000000000 -0.299380000000000
H 5.326630000000000 -1.038540000000000 -0.365620000000000
H 5.540600000000000 0.533190000000000 0.379250000000000
N 4.777460000000000 0.510120000000000 -1.646660000000000
H 4.705630000000000 1.518610000000000 -1.612750000000000
H 5.599110000000000 0.295250000000000 -2.193940000000000
C 0.682140000000000 0.949370000000000 0.922700000000000
H 1.536820000000000 1.261280000000000 1.522870000000000
H 0.421180000000000 1.756530000000000 0.236800000000000
C -0.470160000000000 0.618730000000000 1.827060000000000
C -1.752060000000000 1.132380000000000 1.604020000000000
H -1.914420000000000 1.799740000000000 0.767990000000000
C -2.813650000000000 0.772600000000000 2.434670000000000
H -3.799060000000000 1.181270000000000 2.253710000000000
C -2.606570000000000 -0.106970000000000 3.495760000000000
H -3.429820000000000 -0.386550000000000 4.138820000000000
C -1.330170000000000 -0.618960000000000 3.729480000000000
H -1.160260000000000 -1.294030000000000 4.557290000000000
C -0.270170000000000 -0.257380000000000 2.901900000000000
H 0.725340000000000 -0.644900000000000 3.086530000000000

GFA05.wfx

