%nprocs=4
%mem=4GB
#p pbepbe aug-cc-pvtz output=wfx scf=(conver=6) int=(grid=ultrafine)

title

0 1
O 5.076010000000000 -0.773610000000000 -0.025990000000000
C 4.244890000000000 0.074800000000000 -0.244480000000000
O 4.086940000000000 0.624030000000000 -1.455480000000000
H 3.340350000000000 1.267460000000000 -1.419490000000000
C 3.298190000000000 0.617580000000000 0.833940000000000
C 3.598160000000000 0.011570000000000 2.187420000000000
H 2.938530000000000 0.434840000000000 2.942400000000000
H 3.462210000000000 -1.067340000000000 2.154330000000000
H 4.630600000000000 0.205640000000000 2.462530000000000
H 3.423180000000000 1.703590000000000 0.856390000000000
N 1.907440000000000 0.349120000000000 0.484300000000000
H 1.384120000000000 -0.367950000000000 0.991220000000000
C 1.251030000000000 1.056440000000000 -0.443880000000000
O 1.781510000000000 1.940600000000000 -1.133610000000000
C -0.235690000000000 0.755360000000000 -0.590430000000000
H -0.536810000000000 1.259890000000000 -1.505980000000000
N -0.529150000000000 -0.654430000000000 -0.792060000000000
H -0.998370000000000 -0.950120000000000 -1.640760000000000
C -0.496190000000000 -1.610830000000000 0.148900000000000
O -0.011150000000000 -1.481820000000000 1.279360000000000
C -1.147070000000000 -2.917920000000000 -0.271200000000000
H -2.092250000000000 -2.957010000000000 0.271110000000000
H -0.521620000000000 -3.724180000000000 0.113910000000000
N -1.413040000000000 -2.974940000000000 -1.705370000000000
H -0.641650000000000 -3.407430000000000 -2.195840000000000
H -2.233830000000000 -3.530960000000000 -1.896930000000000
C -1.027680000000000 1.360450000000000 0.585230000000000
H -0.650850000000000 0.955070000000000 1.522280000000000
H -0.841960000000000 2.436090000000000 0.579040000000000
C -2.491290000000000 1.064150000000000 0.441970000000000
C -3.271220000000000 1.760570000000000 -0.486100000000000
H -2.825050000000000 2.562620000000000 -1.062770000000000
C -4.614660000000000 1.442350000000000 -0.668020000000000
H -5.207060000000000 1.994300000000000 -1.385050000000000
C -5.196390000000000 0.418490000000000 0.078550000000000
H -6.240370000000000 0.172790000000000 -0.059060000000000
C -4.429510000000000 -0.278230000000000 1.010250000000000
H -4.878420000000000 -1.064790000000000 1.602050000000000
C -3.084590000000000 0.042330000000000 1.188550000000000
H -2.487000000000000 -0.495390000000000 1.914600000000000

GFA12.wfx

