%nprocs=4
%mem=4GB
#p pbepbe aug-cc-pvtz output=wfx scf=(conver=6) int=(grid=ultrafine)

title

0 1
O 0.417820000000000 -3.009910000000000 -0.664090000000000
C 0.085810000000000 -2.593590000000000 -1.752420000000000
O 0.589350000000000 -3.073510000000000 -2.904270000000000
H 1.230240000000000 -3.753130000000000 -2.645020000000000
C -0.996460000000000 -1.543440000000000 -1.985500000000000
C -0.847850000000000 -0.771910000000000 -3.289770000000000
H -0.884520000000000 -1.446940000000000 -4.140400000000000
H -1.664530000000000 -0.057910000000000 -3.366740000000000
H 0.094580000000000 -0.233690000000000 -3.301410000000000
H -1.930020000000000 -2.109960000000000 -2.015800000000000
N -1.079360000000000 -0.675580000000000 -0.829080000000000
H -1.735840000000000 -0.927560000000000 -0.096540000000000
C 0.063430000000000 -0.084390000000000 -0.383550000000000
O 1.097140000000000 -0.030340000000000 -1.041350000000000
C -0.019630000000000 0.378280000000000 1.069730000000000
H -1.036630000000000 0.691320000000000 1.305620000000000
N 0.267340000000000 -0.804150000000000 1.867450000000000
H 1.222700000000000 -1.136940000000000 1.941620000000000
C -0.665750000000000 -1.768790000000000 2.037400000000000
O -1.860880000000000 -1.625020000000000 1.774290000000000
C -0.121130000000000 -3.068050000000000 2.602080000000000
H -0.755040000000000 -3.859090000000000 2.198300000000000
H -0.270270000000000 -3.043900000000000 3.682060000000000
N 1.303930000000000 -3.208150000000000 2.317760000000000
H 1.419500000000000 -3.494780000000000 1.352560000000000
H 1.712490000000000 -3.924920000000000 2.901040000000000
C 0.964240000000000 1.498730000000000 1.364360000000000
H 0.997620000000000 1.644970000000000 2.444780000000000
H 1.954220000000000 1.192330000000000 1.024950000000000
C 0.542690000000000 2.767970000000000 0.677430000000000
C -0.409490000000000 3.600880000000000 1.273330000000000
H -0.806030000000000 3.342290000000000 2.248320000000000
C -0.844120000000000 4.759430000000000 0.634670000000000
H -1.577490000000000 5.395490000000000 1.111620000000000
C -0.329470000000000 5.099690000000000 -0.615100000000000
H -0.662960000000000 5.999940000000000 -1.112840000000000
C 0.619460000000000 4.276190000000000 -1.217580000000000
H 1.023940000000000 4.535700000000000 -2.186650000000000
C 1.051220000000000 3.116630000000000 -0.576840000000000
H 1.777070000000000 2.467850000000000 -1.048250000000000

GFA14.wfx

