%nprocs=4
%mem=4GB
#p pbepbe aug-cc-pvtz output=wfx scf=(conver=6) int=(grid=ultrafine)

title

0 1
O -0.418230000000000 1.608750000000000 -3.747230000000000
C -0.289880000000000 1.855480000000000 -2.572260000000000
O -1.316460000000000 2.269350000000000 -1.816370000000000
H -1.005500000000000 2.388120000000000 -0.888840000000000
C 1.050130000000000 1.730250000000000 -1.830990000000000
C 2.160830000000000 1.331650000000000 -2.777820000000000
H 2.241390000000000 2.052830000000000 -3.585600000000000
H 3.107790000000000 1.279380000000000 -2.244430000000000
H 1.938430000000000 0.362710000000000 -3.223200000000000
H 1.258880000000000 2.694370000000000 -1.362240000000000
N 0.965370000000000 0.745650000000000 -0.756490000000000
H 1.252180000000000 -0.200250000000000 -0.969930000000000
C 0.281980000000000 0.952590000000000 0.381380000000000
O -0.286830000000000 2.024510000000000 0.638310000000000
C 0.189800000000000 -0.231200000000000 1.320380000000000
H 1.115330000000000 -0.808650000000000 1.304480000000000
N -0.018430000000000 0.258260000000000 2.652330000000000
H -0.443390000000000 1.163570000000000 2.804030000000000
C 0.254720000000000 -0.522870000000000 3.720040000000000
O 0.722890000000000 -1.654740000000000 3.632280000000000
C -0.079480000000000 0.104020000000000 5.063520000000000
H 0.728450000000000 -0.170200000000000 5.744500000000000
H -0.977200000000000 -0.401290000000000 5.418890000000000
N -0.352460000000000 1.534890000000000 4.962060000000000
H -0.912980000000000 1.845220000000000 5.743150000000000
H 0.509510000000000 2.063300000000000 4.995080000000000
C -0.960530000000000 -1.166130000000000 0.865980000000000
H -1.010340000000000 -1.966640000000000 1.604510000000000
H -1.893620000000000 -0.601510000000000 0.896250000000000
C -0.699170000000000 -1.701050000000000 -0.509360000000000
C 0.325830000000000 -2.634120000000000 -0.708570000000000
H 0.833980000000000 -3.055920000000000 0.151310000000000
C 0.696300000000000 -3.016810000000000 -1.997050000000000
H 1.489670000000000 -3.738670000000000 -2.137300000000000
C 0.043710000000000 -2.469910000000000 -3.102440000000000
H 0.335890000000000 -2.759240000000000 -4.102560000000000
C -0.991600000000000 -1.555060000000000 -2.914390000000000
H -1.495590000000000 -1.118220000000000 -3.764880000000000
C -1.359640000000000 -1.177040000000000 -1.624470000000000
H -2.144530000000000 -0.444030000000000 -1.484110000000000

GFA10.wfx

