%nprocs=4
%mem=4GB
#p pbepbe aug-cc-pvtz output=wfx scf=(conver=6) int=(grid=ultrafine)

title

0 1
O 1.036150000000000 -0.515630000000000 -2.941710000000000
C 0.045180000000000 -0.232860000000000 -3.578890000000000
O -0.135620000000000 -0.595160000000000 -4.863690000000000
H 0.655060000000000 -1.096570000000000 -5.114220000000000
C -1.115720000000000 0.612300000000000 -3.078470000000000
C -0.948650000000000 2.040860000000000 -3.582360000000000
H -0.909040000000000 2.061780000000000 -4.668550000000000
H -1.787740000000000 2.645270000000000 -3.246040000000000
H -0.029040000000000 2.471980000000000 -3.186960000000000
H -2.030640000000000 0.172390000000000 -3.469240000000000
N -1.153550000000000 0.601060000000000 -1.637820000000000
H -0.521410000000000 1.242700000000000 -1.161730000000000
C -1.326770000000000 -0.606590000000000 -1.024450000000000
O -1.786180000000000 -1.587840000000000 -1.595380000000000
C -0.827300000000000 -0.664680000000000 0.417510000000000
H -1.096940000000000 -1.653800000000000 0.783500000000000
N 0.629980000000000 -0.627930000000000 0.384160000000000
H 1.134860000000000 -1.503900000000000 0.305590000000000
C 1.380510000000000 0.435310000000000 0.045020000000000
O 0.965090000000000 1.593910000000000 -0.074620000000000
C 2.845220000000000 0.102760000000000 -0.178140000000000
H 3.370430000000000 0.299820000000000 0.757430000000000
H 3.204060000000000 0.819640000000000 -0.918390000000000
N 3.017560000000000 -1.301420000000000 -0.537280000000000
H 2.759030000000000 -1.427830000000000 -1.509190000000000
H 3.984450000000000 -1.578110000000000 -0.438820000000000
C -1.444400000000000 0.385420000000000 1.348980000000000
H -1.260830000000000 1.384550000000000 0.962970000000000
H -2.522850000000000 0.215550000000000 1.353630000000000
C -0.886050000000000 0.255250000000000 2.736400000000000
C -1.378420000000000 -0.716300000000000 3.612260000000000
H -2.202530000000000 -1.346950000000000 3.299070000000000
C -0.829900000000000 -0.874020000000000 4.882610000000000
H -1.225890000000000 -1.625870000000000 5.551850000000000
C 0.223800000000000 -0.058450000000000 5.292180000000000
H 0.649570000000000 -0.176950000000000 6.279140000000000
C 0.720800000000000 0.913990000000000 4.426590000000000
H 1.534550000000000 1.553590000000000 4.741240000000000
C 0.170080000000000 1.068470000000000 3.155880000000000
H 0.554590000000000 1.821360000000000 2.479140000000000

GFA13.wfx

