%nprocs=4
%mem=4GB
#p pbepbe aug-cc-pvtz output=wfx scf=(conver=6) int=(grid=ultrafine)

title

0 1
O -5.028260000000000 0.258850000000000 -1.623970000000000
C -4.250240000000000 0.428460000000000 -0.714200000000000
O -4.096780000000000 1.612160000000000 -0.115530000000000
H -3.420620000000000 1.532340000000000 0.604110000000000
C -3.433380000000000 -0.736610000000000 -0.146160000000000
C -4.033610000000000 -1.208520000000000 1.176380000000000
H -3.508620000000000 -2.097480000000000 1.520770000000000
H -3.955690000000000 -0.437860000000000 1.938720000000000
H -5.083720000000000 -1.454390000000000 1.029860000000000
H -3.526450000000000 -1.527280000000000 -0.885270000000000
N -2.001200000000000 -0.467240000000000 -0.032880000000000
H -1.351190000000000 -1.001060000000000 -0.615040000000000
C -1.446140000000000 0.404370000000000 0.815180000000000
O -2.079870000000000 1.209030000000000 1.518220000000000
C 0.075260000000000 0.442380000000000 0.843930000000000
H 0.320070000000000 0.943260000000000 1.777990000000000
N 0.737810000000000 -0.852310000000000 0.898510000000000
H 1.479590000000000 -0.963020000000000 1.582600000000000
C 0.916360000000000 -1.666020000000000 -0.160850000000000
O 0.216380000000000 -1.661570000000000 -1.178780000000000
C 2.074370000000000 -2.637910000000000 -0.005980000000000
H 2.479010000000000 -2.782610000000000 -1.009770000000000
H 1.659040000000000 -3.592980000000000 0.317020000000000
N 3.030510000000000 -2.168230000000000 0.991680000000000
H 3.642260000000000 -1.469490000000000 0.582050000000000
H 3.615190000000000 -2.927980000000000 1.311890000000000
C 0.602480000000000 1.307220000000000 -0.326050000000000
H 0.181350000000000 0.949330000000000 -1.264140000000000
H 0.250880000000000 2.327250000000000 -0.163900000000000
C 2.101050000000000 1.234970000000000 -0.375210000000000
C 2.743060000000000 0.511270000000000 -1.384620000000000
H 2.150710000000000 0.069540000000000 -2.176010000000000
C 4.129230000000000 0.353340000000000 -1.377250000000000
H 4.611810000000000 -0.200350000000000 -2.171760000000000
C 4.890570000000000 0.912360000000000 -0.351570000000000
H 5.965360000000000 0.792620000000000 -0.344250000000000
C 4.260400000000000 1.645260000000000 0.654740000000000
H 4.845990000000000 2.094460000000000 1.445270000000000
C 2.877100000000000 1.805350000000000 0.639340000000000
H 2.395060000000000 2.379720000000000 1.421900000000000

GFA16.wfx

