%nprocs=4
%mem=4GB
#p pbepbe aug-cc-pvtz output=wfx scf=(conver=6) int=(grid=ultrafine)

title

0 1
O -0.927730000000000 -0.337740000000000 5.144340000000000
C -0.030450000000000 -0.310610000000000 4.336700000000000
O 0.850510000000000 -1.311290000000000 4.214140000000000
H 1.478940000000000 -1.097000000000000 3.484840000000000
C 0.205410000000000 0.870540000000000 3.386180000000000
C -0.780570000000000 1.989410000000000 3.641880000000000
H -1.797000000000000 1.639590000000000 3.474360000000000
H -0.711070000000000 2.318980000000000 4.674230000000000
H -0.575540000000000 2.829060000000000 2.980550000000000
H 1.232080000000000 1.211060000000000 3.547510000000000
N 0.100430000000000 0.447040000000000 1.993740000000000
H -0.692680000000000 0.755140000000000 1.425610000000000
C 1.076390000000000 -0.228220000000000 1.376410000000000
O 2.099870000000000 -0.633410000000000 1.949080000000000
C 0.909890000000000 -0.442980000000000 -0.122040000000000
H 1.617730000000000 -1.230480000000000 -0.370880000000000
N -0.396050000000000 -0.936720000000000 -0.531000000000000
H -0.417750000000000 -1.734660000000000 -1.157690000000000
C -1.507910000000000 -0.184590000000000 -0.641490000000000
O -1.696710000000000 0.889090000000000 -0.060020000000000
C -2.563790000000000 -0.777390000000000 -1.559930000000000
H -3.068010000000000 0.072970000000000 -2.023600000000000
H -3.295440000000000 -1.284060000000000 -0.929960000000000
N -1.980120000000000 -1.740360000000000 -2.488220000000000
H -2.691770000000000 -2.349490000000000 -2.867430000000000
H -1.550240000000000 -1.254210000000000 -3.268220000000000
C 1.303810000000000 0.834210000000000 -0.898730000000000
H 0.743050000000000 1.683270000000000 -0.510990000000000
H 2.364930000000000 1.015570000000000 -0.720710000000000
C 1.009760000000000 0.649080000000000 -2.359360000000000
C 1.753280000000000 -0.252860000000000 -3.127550000000000
H 2.605420000000000 -0.755760000000000 -2.685280000000000
C 1.411400000000000 -0.512330000000000 -4.452460000000000
H 1.997390000000000 -1.211730000000000 -5.033060000000000
C 0.318010000000000 0.132540000000000 -5.031260000000000
H 0.054490000000000 -0.064390000000000 -6.061470000000000
C -0.420400000000000 1.046410000000000 -4.280470000000000
H -1.258660000000000 1.564570000000000 -4.727230000000000
C -0.077300000000000 1.298580000000000 -2.951990000000000
H -0.657640000000000 1.999590000000000 -2.365320000000000

GFA15.wfx

