%nprocs=4
%mem=4GB
#p pbepbe aug-cc-pvtz output=wfx scf=(conver=6) int=(grid=ultrafine)

title

0 1
O 1.864910000000000 -2.659090000000000 0.780720000000000
C 0.848070000000000 -2.908170000000000 -0.068050000000000
O 0.957130000000000 -3.621880000000000 -1.038450000000000
H 2.625550000000000 -3.144970000000000 0.426320000000000
C -0.443010000000000 -2.234550000000000 0.356480000000000
H -0.996800000000000 -2.992930000000000 0.920420000000000
N -0.170140000000000 -1.117980000000000 1.226710000000000
H 0.758730000000000 -0.701730000000000 1.259430000000000
C -1.173120000000000 -0.451300000000000 1.837700000000000
O -2.352100000000000 -0.794960000000000 1.804720000000000
C -0.696980000000000 0.787890000000000 2.590890000000000
H 0.085750000000000 0.504080000000000 3.296100000000000
H -1.547520000000000 1.189300000000000 3.132140000000000
N -0.173880000000000 1.809340000000000 1.706470000000000
H -0.702950000000000 2.637500000000000 1.471360000000000
C 1.067770000000000 1.756180000000000 1.196870000000000
O 1.851680000000000 0.820300000000000 1.380820000000000
C 1.470660000000000 2.964540000000000 0.371710000000000
H 1.947470000000000 2.576220000000000 -0.530070000000000
H 2.240370000000000 3.478790000000000 0.946580000000000
N 0.354270000000000 3.872860000000000 0.121750000000000
H -0.096640000000000 3.620790000000000 -0.748350000000000
H 0.683700000000000 4.822830000000000 0.024130000000000
C -1.297490000000000 -1.861070000000000 -0.868060000000000
H -1.234490000000000 -2.686500000000000 -1.576650000000000
H -2.327130000000000 -1.766190000000000 -0.532400000000000
C -0.861850000000000 -0.570880000000000 -1.501380000000000
C -1.657610000000000 0.570860000000000 -1.372490000000000
H -2.579160000000000 0.506410000000000 -0.807340000000000
C -1.289390000000000 1.771330000000000 -1.978360000000000
H -1.941370000000000 2.632380000000000 -1.900550000000000
C -0.097150000000000 1.854070000000000 -2.697050000000000
H 0.185910000000000 2.778900000000000 -3.183450000000000
C 0.717860000000000 0.727340000000000 -2.810150000000000
H 1.639320000000000 0.780430000000000 -3.374430000000000
C 0.333650000000000 -0.476730000000000 -2.224440000000000
H 0.951180000000000 -1.356500000000000 -2.351940000000000

GGF02.wfx

