%nprocs=4
%mem=4GB
#p pbepbe aug-cc-pvtz output=wfx scf=(conver=6) int=(grid=ultrafine)

title

0 1
O 4.090570000000000 1.440170000000000 0.644580000000000
C 3.440830000000000 0.446480000000000 0.410370000000000
O 3.915230000000000 -0.803380000000000 0.574540000000000
H 4.827140000000000 -0.685850000000000 0.883650000000000
C 2.019180000000000 0.482340000000000 -0.120350000000000
H 2.113570000000000 0.731960000000000 -1.179630000000000
N 1.340540000000000 -0.780520000000000 -0.062650000000000
H 0.935710000000000 -1.095330000000000 0.817080000000000
C 0.890020000000000 -1.390900000000000 -1.186790000000000
O 1.171340000000000 -1.043460000000000 -2.328730000000000
C -0.054840000000000 -2.547410000000000 -0.885540000000000
H 0.397760000000000 -3.218550000000000 -0.154940000000000
H -0.239700000000000 -3.082400000000000 -1.811100000000000
N -1.314110000000000 -2.065370000000000 -0.354340000000000
H -2.130980000000000 -1.942550000000000 -0.937850000000000
C -1.469410000000000 -1.700600000000000 0.929130000000000
O -0.568730000000000 -1.730540000000000 1.774070000000000
C -2.875120000000000 -1.254990000000000 1.288890000000000
H -2.766000000000000 -0.396570000000000 1.954310000000000
H -3.313770000000000 -2.064370000000000 1.872770000000000
N -3.693120000000000 -1.010040000000000 0.105120000000000
H -3.562010000000000 -0.053070000000000 -0.203360000000000
H -4.673610000000000 -1.121380000000000 0.322160000000000
C 1.232760000000000 1.570230000000000 0.616980000000000
H 1.227130000000000 1.336860000000000 1.684420000000000
H 1.772670000000000 2.511510000000000 0.506390000000000
C -0.187930000000000 1.717530000000000 0.140050000000000
C -1.189630000000000 2.047450000000000 1.058660000000000
H -0.936230000000000 2.129840000000000 2.108510000000000
C -2.497900000000000 2.288310000000000 0.642710000000000
H -3.252090000000000 2.562990000000000 1.368540000000000
C -2.828750000000000 2.185150000000000 -0.708650000000000
H -3.838600000000000 2.389160000000000 -1.040310000000000
C -1.846420000000000 1.821270000000000 -1.629380000000000
H -2.094320000000000 1.724850000000000 -2.677840000000000
C -0.537360000000000 1.591820000000000 -1.209260000000000
H 0.205090000000000 1.306440000000000 -1.942510000000000

GGF07.wfx

