%nprocs=4
%mem=4GB
#p pbepbe aug-cc-pvtz output=wfx scf=(conver=6) int=(grid=ultrafine)

title

0 1
O -1.475420000000000 -2.184690000000000 0.622940000000000
C -2.095140000000000 -1.279650000000000 1.132680000000000
O -3.427580000000000 -1.316550000000000 1.342480000000000
H -3.722710000000000 -2.175550000000000 1.003210000000000
C -1.505160000000000 0.035220000000000 1.577870000000000
H -1.797870000000000 0.235050000000000 2.609070000000000
N -0.076010000000000 -0.087240000000000 1.509530000000000
H 0.308010000000000 -0.725930000000000 0.831500000000000
C 0.739400000000000 0.761250000000000 2.175510000000000
O 0.338670000000000 1.616020000000000 2.956190000000000
C 2.229430000000000 0.571570000000000 1.910830000000000
H 2.690800000000000 0.255470000000000 2.844900000000000
H 2.629340000000000 1.548850000000000 1.648590000000000
N 2.548950000000000 -0.351130000000000 0.853570000000000
H 2.626890000000000 -1.348440000000000 0.997210000000000
C 2.748090000000000 0.070740000000000 -0.420150000000000
O 2.729970000000000 1.245460000000000 -0.768340000000000
C 2.941480000000000 -1.056170000000000 -1.422130000000000
H 3.693920000000000 -0.722920000000000 -2.137970000000000
H 1.995990000000000 -1.126740000000000 -1.962450000000000
N 3.225520000000000 -2.339170000000000 -0.781170000000000
H 4.223060000000000 -2.482690000000000 -0.698220000000000
H 2.865790000000000 -3.102490000000000 -1.336150000000000
C -2.034140000000000 1.185480000000000 0.687020000000000
H -3.114920000000000 1.250480000000000 0.810660000000000
H -1.587680000000000 2.102280000000000 1.070990000000000
C -1.664150000000000 0.963770000000000 -0.748920000000000
C -0.414630000000000 1.370730000000000 -1.227160000000000
H 0.260890000000000 1.917560000000000 -0.583010000000000
C -0.024650000000000 1.085320000000000 -2.534620000000000
H 0.949220000000000 1.410000000000000 -2.874580000000000
C -0.887230000000000 0.394170000000000 -3.384200000000000
H -0.590990000000000 0.178240000000000 -4.401890000000000
C -2.140690000000000 -0.005680000000000 -2.922230000000000
H -2.818960000000000 -0.531980000000000 -3.580220000000000
C -2.523320000000000 0.275720000000000 -1.612840000000000
H -3.499020000000000 -0.032680000000000 -1.257080000000000

GGF03.wfx

