%nprocs=4
%mem=4GB
#p pbepbe aug-cc-pvtz output=wfx scf=(conver=6) int=(grid=ultrafine)

title

0 1
O -0.262520000000000 -2.066910000000000 -2.127200000000000
C -0.186920000000000 -1.002680000000000 -2.693270000000000
O 0.377070000000000 -0.849090000000000 -3.913890000000000
H 0.655790000000000 -1.737510000000000 -4.183280000000000
C -0.680680000000000 0.317190000000000 -2.152780000000000
H -1.353380000000000 0.752870000000000 -2.895420000000000
N -1.392200000000000 0.046550000000000 -0.932270000000000
H -1.326370000000000 -0.881650000000000 -0.519210000000000
C -2.023780000000000 1.031090000000000 -0.256090000000000
O -2.130660000000000 2.184320000000000 -0.668040000000000
C -2.585760000000000 0.592990000000000 1.092610000000000
H -3.276220000000000 -0.238280000000000 0.948100000000000
H -3.115850000000000 1.439890000000000 1.516570000000000
N -1.551000000000000 0.161450000000000 2.007900000000000
H -1.084400000000000 0.804570000000000 2.631140000000000
C -1.023700000000000 -1.076720000000000 1.940960000000000
O -1.402810000000000 -1.939430000000000 1.148000000000000
C 0.118710000000000 -1.336860000000000 2.902200000000000
H 1.018070000000000 -1.346650000000000 2.286000000000000
H -0.017710000000000 -2.346720000000000 3.292500000000000
N 0.253090000000000 -0.293150000000000 3.917030000000000
H 1.211150000000000 -0.239100000000000 4.234560000000000
H -0.309770000000000 -0.514930000000000 4.728330000000000
C 0.492370000000000 1.308590000000000 -1.961210000000000
H 1.062050000000000 1.338900000000000 -2.889690000000000
H 0.051450000000000 2.288880000000000 -1.796020000000000
C 1.367890000000000 0.943220000000000 -0.799460000000000
C 2.330090000000000 -0.067260000000000 -0.901330000000000
H 2.464670000000000 -0.584320000000000 -1.843370000000000
C 3.136670000000000 -0.395920000000000 0.185870000000000
H 3.882230000000000 -1.173390000000000 0.087590000000000
C 2.994670000000000 0.288670000000000 1.392800000000000
H 3.637680000000000 0.048830000000000 2.229720000000000
C 2.033910000000000 1.292120000000000 1.509600000000000
H 1.916950000000000 1.828510000000000 2.441360000000000
C 1.222910000000000 1.609060000000000 0.421510000000000
H 0.480310000000000 2.393390000000000 0.504710000000000

GGF09.wfx

