%nprocs=4
%mem=4GB
#p pbepbe aug-cc-pvtz output=wfx scf=(conver=6) int=(grid=ultrafine)

title

0 1
O -3.984150000000000 -0.776430000000000 -0.599510000000000
C -2.812680000000000 -0.955500000000000 0.054140000000000
O -2.317900000000000 -2.041530000000000 0.240950000000000
H -4.287820000000000 -1.666360000000000 -0.834720000000000
C -2.228750000000000 0.365580000000000 0.492190000000000
H -2.987470000000000 0.876010000000000 1.090270000000000
N -1.071150000000000 0.086010000000000 1.297640000000000
H -0.659600000000000 -0.846290000000000 1.270330000000000
C -0.394060000000000 1.082570000000000 1.908220000000000
O -0.763690000000000 2.254940000000000 1.920550000000000
C 0.889490000000000 0.623220000000000 2.591510000000000
H 0.663390000000000 -0.192940000000000 3.279470000000000
H 1.285100000000000 1.469270000000000 3.144050000000000
N 1.884010000000000 0.165090000000000 1.644190000000000
H 2.682340000000000 0.728050000000000 1.388090000000000
C 1.855610000000000 -1.077010000000000 1.128430000000000
O 0.962740000000000 -1.895230000000000 1.356690000000000
C 3.032910000000000 -1.425140000000000 0.235650000000000
H 2.615540000000000 -1.905580000000000 -0.651130000000000
H 3.605410000000000 -2.181630000000000 0.771460000000000
N 3.886320000000000 -0.272640000000000 -0.045400000000000
H 3.567500000000000 0.184290000000000 -0.890050000000000
H 4.838780000000000 -0.568000000000000 -0.207770000000000
C -1.917940000000000 1.276960000000000 -0.719400000000000
H -2.771730000000000 1.247610000000000 -1.396400000000000
H -1.819280000000000 2.290500000000000 -0.338340000000000
C -0.651570000000000 0.886720000000000 -1.424460000000000
C 0.473460000000000 1.711330000000000 -1.337150000000000
H 0.413760000000000 2.618790000000000 -0.749280000000000
C 1.650140000000000 1.388450000000000 -2.011060000000000
H 2.497180000000000 2.061020000000000 -1.961920000000000
C 1.727070000000000 0.213480000000000 -2.758400000000000
H 2.633150000000000 -0.035020000000000 -3.296030000000000
C 0.619780000000000 -0.632110000000000 -2.828450000000000
H 0.669650000000000 -1.544120000000000 -3.407870000000000
C -0.561000000000000 -0.292580000000000 -2.172780000000000
H -1.421720000000000 -0.942950000000000 -2.261300000000000

GGF08.wfx

