%nprocs=4
%mem=4GB
#p pbepbe aug-cc-pvtz output=wfx scf=(conver=6) int=(grid=ultrafine)

title

0 1
O 2.083990000000000 -2.953320000000000 0.959350000000000
C 1.107830000000000 -2.272940000000000 0.738060000000000
O 0.329810000000000 -1.828110000000000 1.722730000000000
H -0.397350000000000 -1.249720000000000 1.416060000000000
C 0.774880000000000 -1.884230000000000 -0.711050000000000
H 0.672560000000000 -2.829460000000000 -1.242810000000000
N -0.437150000000000 -1.127590000000000 -0.871760000000000
H -0.376140000000000 -0.121480000000000 -0.854050000000000
C -1.667830000000000 -1.694330000000000 -0.795560000000000
O -1.867110000000000 -2.897570000000000 -0.753730000000000
C -2.826280000000000 -0.700850000000000 -0.774860000000000
H -3.542010000000000 -1.097330000000000 -0.055770000000000
H -3.293020000000000 -0.696110000000000 -1.757390000000000
N -2.442760000000000 0.650610000000000 -0.432350000000000
H -2.664180000000000 1.451980000000000 -1.007540000000000
C -1.935810000000000 0.935260000000000 0.784560000000000
O -1.666080000000000 0.072230000000000 1.621190000000000
C -1.705250000000000 2.408580000000000 1.058740000000000
H -0.737320000000000 2.482240000000000 1.558340000000000
H -2.464540000000000 2.706250000000000 1.781690000000000
N -1.829820000000000 3.220220000000000 -0.149080000000000
H -0.921700000000000 3.311350000000000 -0.588430000000000
H -2.139650000000000 4.153810000000000 0.081690000000000
C 1.949440000000000 -1.083050000000000 -1.295610000000000
H 2.866200000000000 -1.608160000000000 -1.032350000000000
H 1.856950000000000 -1.070380000000000 -2.381540000000000
C 1.957270000000000 0.328320000000000 -0.773650000000000
C 2.322410000000000 0.607850000000000 0.550250000000000
H 2.661900000000000 -0.194000000000000 1.193220000000000
C 2.264680000000000 1.909400000000000 1.042570000000000
H 2.553810000000000 2.106660000000000 2.065890000000000
C 1.850300000000000 2.957160000000000 0.219150000000000
H 1.825840000000000 3.969930000000000 0.598830000000000
C 1.492580000000000 2.693650000000000 -1.102230000000000
H 1.202830000000000 3.502530000000000 -1.761350000000000
C 1.536010000000000 1.385840000000000 -1.587670000000000
H 1.264190000000000 1.183970000000000 -2.616980000000000

GGF01.wfx

