%nprocs=4
%mem=4GB
#p pbepbe aug-cc-pvtz output=wfx scf=(conver=6) int=(grid=ultrafine)

title

0 1
O -1.899140000000000 0.710920000000000 1.978910000000000
C -2.307830000000000 1.097610000000000 0.909290000000000
O -3.623150000000000 1.227640000000000 0.621640000000000
H -4.093290000000000 0.967520000000000 1.428540000000000
C -1.457210000000000 1.469440000000000 -0.279600000000000
H -1.736000000000000 2.470360000000000 -0.611060000000000
N -0.078030000000000 1.485450000000000 0.126000000000000
H 0.212320000000000 0.822200000000000 0.837920000000000
C 0.821240000000000 2.209100000000000 -0.589360000000000
O 0.504650000000000 2.938050000000000 -1.522590000000000
C 2.275740000000000 2.094650000000000 -0.142650000000000
H 2.585350000000000 3.069520000000000 0.230190000000000
H 2.870590000000000 1.869180000000000 -1.023750000000000
N 2.516470000000000 1.068610000000000 0.842750000000000
H 2.027890000000000 1.158130000000000 1.720910000000000
C 2.710310000000000 -0.225870000000000 0.439320000000000
O 3.121830000000000 -0.535080000000000 -0.669590000000000
C 2.334610000000000 -1.241300000000000 1.509130000000000
H 2.997690000000000 -1.109180000000000 2.365000000000000
H 2.500410000000000 -2.234450000000000 1.092620000000000
N 0.956640000000000 -0.973440000000000 1.932750000000000
H 0.309190000000000 -1.444690000000000 1.307740000000000
H 0.780010000000000 -1.343300000000000 2.857130000000000
C -1.701470000000000 0.493250000000000 -1.455000000000000
H -2.765250000000000 0.488690000000000 -1.691260000000000
H -1.160510000000000 0.896870000000000 -2.310080000000000
C -1.208090000000000 -0.883650000000000 -1.124710000000000
C 0.087380000000000 -1.271160000000000 -1.481130000000000
H 0.716020000000000 -0.589690000000000 -2.039600000000000
C 0.582240000000000 -2.526000000000000 -1.128310000000000
H 1.589060000000000 -2.796430000000000 -1.414430000000000
C -0.216310000000000 -3.409880000000000 -0.403580000000000
H 0.161650000000000 -4.386060000000000 -0.131010000000000
C -1.509530000000000 -3.033650000000000 -0.037030000000000
H -2.136210000000000 -3.717590000000000 0.519480000000000
C -2.000100000000000 -1.779800000000000 -0.396900000000000
H -3.009690000000000 -1.498300000000000 -0.123410000000000

GGF05.wfx

