%nprocs=4
%mem=4GB
#p pbepbe aug-cc-pvtz output=wfx scf=(conver=6) int=(grid=ultrafine)

title

0 1
O -0.554970000000000 1.556570000000000 4.061460000000000
C -0.384500000000000 0.525840000000000 3.460080000000000
O -0.604180000000000 -0.677650000000000 4.016630000000000
H -0.414620000000000 -1.328610000000000 3.318910000000000
C 0.124230000000000 0.489860000000000 2.018020000000000
H 1.190470000000000 0.714530000000000 2.080520000000000
N 0.008480000000000 -0.826980000000000 1.422600000000000
H -0.853920000000000 -1.043720000000000 0.913980000000000
C 1.119800000000000 -1.469640000000000 0.935050000000000
O 2.268710000000000 -1.169810000000000 1.220360000000000
C 0.768800000000000 -2.597420000000000 -0.026580000000000
H -0.009070000000000 -3.229700000000000 0.403440000000000
H 1.664780000000000 -3.183860000000000 -0.201070000000000
N 0.291730000000000 -2.068370000000000 -1.288090000000000
H 0.885120000000000 -2.002540000000000 -2.105110000000000
C -0.964120000000000 -1.622250000000000 -1.458000000000000
O -1.810890000000000 -1.581320000000000 -0.558370000000000
C -1.290250000000000 -1.189320000000000 -2.874560000000000
H -1.906730000000000 -0.292750000000000 -2.791790000000000
H -1.916000000000000 -1.976240000000000 -3.296120000000000
N -0.087940000000000 -1.031720000000000 -3.686410000000000
H 0.266350000000000 -0.087210000000000 -3.585070000000000
H -0.299230000000000 -1.168220000000000 -4.664990000000000
C -0.605960000000000 1.540170000000000 1.186660000000000
H -1.671300000000000 1.296400000000000 1.169540000000000
H -0.515080000000000 2.493070000000000 1.710100000000000
C -0.108580000000000 1.673540000000000 -0.229260000000000
C -0.999880000000000 2.080600000000000 -1.228170000000000
H -2.043340000000000 2.225530000000000 -0.976210000000000
C -0.563620000000000 2.321930000000000 -2.529190000000000
H -1.267160000000000 2.658510000000000 -3.279330000000000
C 0.780300000000000 2.141100000000000 -2.858280000000000
H 1.128690000000000 2.345210000000000 -3.862440000000000
C 1.671280000000000 1.699070000000000 -1.881020000000000
H 2.713730000000000 1.545570000000000 -2.125790000000000
C 1.231590000000000 1.471290000000000 -0.577470000000000
H 1.945840000000000 1.136580000000000 0.162600000000000

GGF06.wfx

