%nprocs=4
%mem=4GB
#p pbepbe aug-cc-pvtz output=wfx scf=(conver=6) int=(grid=ultrafine)

title

0 1
O 1.488580000000000 -3.012890000000000 -0.092190000000000
C 0.935280000000000 -1.835630000000000 0.267480000000000
O 1.580810000000000 -0.831970000000000 0.464890000000000
H 2.445080000000000 -2.857670000000000 -0.124210000000000
C -0.579380000000000 -1.945890000000000 0.337470000000000
H -0.810790000000000 -2.865980000000000 0.872250000000000
N -1.128030000000000 -0.831160000000000 1.062470000000000
H -1.316320000000000 0.027420000000000 0.554550000000000
C -0.759820000000000 -0.691970000000000 2.373240000000000
O -0.266210000000000 -1.602870000000000 3.024100000000000
C -0.936380000000000 0.715940000000000 2.921840000000000
H -0.780390000000000 0.689890000000000 3.995350000000000
H -1.925170000000000 1.108790000000000 2.693520000000000
N 0.047140000000000 1.578720000000000 2.296740000000000
H 1.024090000000000 1.513580000000000 2.553860000000000
C -0.174910000000000 2.091420000000000 1.068420000000000
O -1.275890000000000 2.076510000000000 0.512610000000000
C 1.049660000000000 2.684010000000000 0.397160000000000
H 0.999770000000000 3.766050000000000 0.522270000000000
H 0.934390000000000 2.469920000000000 -0.668260000000000
N 2.280780000000000 2.183450000000000 1.001850000000000
H 3.064290000000000 2.765290000000000 0.740630000000000
H 2.465690000000000 1.247710000000000 0.658510000000000
C -1.159230000000000 -2.023730000000000 -1.085840000000000
H -0.817170000000000 -2.954910000000000 -1.536540000000000
H -2.244320000000000 -2.072440000000000 -0.991210000000000
C -0.752950000000000 -0.853770000000000 -1.937290000000000
C 0.443410000000000 -0.891570000000000 -2.663270000000000
H 1.041910000000000 -1.794470000000000 -2.653610000000000
C 0.863300000000000 0.211080000000000 -3.401660000000000
H 1.786660000000000 0.163390000000000 -3.963070000000000
C 0.090150000000000 1.371890000000000 -3.422510000000000
H 0.414470000000000 2.229690000000000 -3.995970000000000
C -1.105480000000000 1.418510000000000 -2.709900000000000
H -1.708450000000000 2.315500000000000 -2.711320000000000
C -1.524880000000000 0.309820000000000 -1.978050000000000
H -2.457910000000000 0.355870000000000 -1.430730000000000

GGF12.wfx

