%nprocs=4
%mem=4GB
#p pbepbe aug-cc-pvtz output=wfx scf=(conver=6) int=(grid=ultrafine)

title

0 1
O -0.564320000000000 3.555910000000000 -0.957940000000000
C 0.469130000000000 2.990760000000000 -0.330980000000000
O 1.615440000000000 3.260170000000000 -0.607450000000000
H -1.410890000000000 3.224990000000000 -0.567110000000000
C 0.072780000000000 2.016780000000000 0.787020000000000
H -0.510720000000000 2.604550000000000 1.502130000000000
N -0.791670000000000 0.959260000000000 0.293640000000000
H -0.396790000000000 0.036510000000000 0.177570000000000
C -2.090700000000000 1.127970000000000 0.016720000000000
O -2.654840000000000 2.229060000000000 0.045560000000000
C -2.857500000000000 -0.136220000000000 -0.326690000000000
H -3.531960000000000 0.104370000000000 -1.144810000000000
H -3.452650000000000 -0.395910000000000 0.549500000000000
N -2.030140000000000 -1.263880000000000 -0.663020000000000
H -1.720390000000000 -1.443570000000000 -1.608630000000000
C -1.727250000000000 -2.232720000000000 0.241330000000000
O -2.033940000000000 -2.181340000000000 1.425390000000000
C -0.983870000000000 -3.415200000000000 -0.360820000000000
H -1.730130000000000 -4.193810000000000 -0.522150000000000
H -0.300090000000000 -3.778940000000000 0.406720000000000
N -0.363310000000000 -3.077620000000000 -1.638520000000000
H 0.546810000000000 -2.659290000000000 -1.478800000000000
H -0.209490000000000 -3.911260000000000 -2.187790000000000
C 1.281880000000000 1.400810000000000 1.496230000000000
H 2.041010000000000 2.176640000000000 1.579820000000000
H 0.972790000000000 1.114700000000000 2.501430000000000
C 1.842500000000000 0.187800000000000 0.800540000000000
C 2.630770000000000 0.298790000000000 -0.352410000000000
H 2.845370000000000 1.281570000000000 -0.748610000000000
C 3.136830000000000 -0.840760000000000 -0.973330000000000
H 3.750660000000000 -0.737890000000000 -1.857990000000000
C 2.875720000000000 -2.107380000000000 -0.448620000000000
H 3.295690000000000 -2.987930000000000 -0.916520000000000
C 2.089280000000000 -2.229060000000000 0.695950000000000
H 1.899210000000000 -3.203240000000000 1.126260000000000
C 1.564900000000000 -1.088890000000000 1.305730000000000
H 0.954540000000000 -1.190120000000000 2.195360000000000

GGF11.wfx

