%nprocs=4
%mem=4GB
#p pbepbe aug-cc-pvtz output=wfx scf=(conver=6) int=(grid=ultrafine)

title

0 1
O -4.228800000000000 -1.309040000000000 0.654710000000000
C -3.466510000000000 -0.488770000000000 0.200240000000000
O -3.885530000000000 0.591680000000000 -0.464600000000000
H -3.106640000000000 1.144060000000000 -0.722690000000000
C -1.956010000000000 -0.599700000000000 0.420340000000000
H -1.783440000000000 -1.616550000000000 0.763660000000000
N -1.164590000000000 -0.446410000000000 -0.792780000000000
H -0.548060000000000 -1.211100000000000 -1.068480000000000
C -0.968290000000000 0.714240000000000 -1.434810000000000
O -1.617950000000000 1.748790000000000 -1.219820000000000
C 0.131730000000000 0.671700000000000 -2.486390000000000
H 0.161430000000000 1.642220000000000 -2.970690000000000
H -0.113290000000000 -0.093780000000000 -3.224310000000000
N 1.430570000000000 0.372530000000000 -1.925360000000000
H 2.098350000000000 1.095560000000000 -1.693020000000000
C 1.791840000000000 -0.872480000000000 -1.573120000000000
O 1.064630000000000 -1.863040000000000 -1.699320000000000
C 3.172100000000000 -0.983990000000000 -0.957630000000000
H 3.651440000000000 -1.855110000000000 -1.405920000000000
H 2.999930000000000 -1.217910000000000 0.092640000000000
N 3.939580000000000 0.255130000000000 -1.062080000000000
H 4.586410000000000 0.213800000000000 -1.838190000000000
H 4.488050000000000 0.400730000000000 -0.226510000000000
C -1.533290000000000 0.380250000000000 1.531780000000000
H -1.838550000000000 1.390350000000000 1.265120000000000
H -2.080780000000000 0.093520000000000 2.431480000000000
C -0.053430000000000 0.345960000000000 1.781280000000000
C 0.762410000000000 1.400020000000000 1.360560000000000
H 0.311760000000000 2.243120000000000 0.851010000000000
C 2.133560000000000 1.386400000000000 1.614060000000000
H 2.747550000000000 2.219140000000000 1.298300000000000
C 2.707120000000000 0.308780000000000 2.286620000000000
H 3.766420000000000 0.306010000000000 2.509640000000000
C 1.906200000000000 -0.760070000000000 2.691320000000000
H 2.343990000000000 -1.597730000000000 3.217600000000000
C 0.536940000000000 -0.739730000000000 2.436990000000000
H -0.083500000000000 -1.562360000000000 2.772570000000000

GGF13.wfx

