%nprocs=4
%mem=4GB
#p pbepbe aug-cc-pvtz output=wfx scf=(conver=6) int=(grid=ultrafine)

title

0 1
O -1.225910000000000 4.229100000000000 0.169590000000000
C -0.177340000000000 3.425800000000000 0.468900000000000
O 0.748790000000000 3.769190000000000 1.161360000000000
H -1.049730000000000 5.068160000000000 0.621850000000000
C -0.371360000000000 2.051920000000000 -0.135530000000000
H -0.679420000000000 2.176430000000000 -1.172600000000000
N 0.856800000000000 1.314400000000000 -0.140070000000000
H 1.225720000000000 0.950100000000000 0.735310000000000
C 1.369980000000000 0.798760000000000 -1.283810000000000
O 0.952530000000000 1.044730000000000 -2.410810000000000
C 2.513450000000000 -0.174210000000000 -1.024010000000000
H 3.233770000000000 0.267540000000000 -0.334980000000000
H 2.995510000000000 -0.390910000000000 -1.971480000000000
N 2.019400000000000 -1.409070000000000 -0.448250000000000
H 1.825780000000000 -2.224230000000000 -1.014390000000000
C 1.704850000000000 -1.528230000000000 0.853280000000000
O 1.811120000000000 -0.618470000000000 1.680730000000000
C 1.229170000000000 -2.912760000000000 1.256240000000000
H 0.422350000000000 -2.765040000000000 1.976580000000000
H 2.058460000000000 -3.378510000000000 1.788970000000000
N 0.875320000000000 -3.729910000000000 0.099500000000000
H 0.949540000000000 -4.712430000000000 0.323260000000000
H -0.089390000000000 -3.552950000000000 -0.156580000000000
C -1.453720000000000 1.315160000000000 0.668430000000000
H -1.153530000000000 1.300180000000000 1.719320000000000
H -2.381510000000000 1.887590000000000 0.606790000000000
C -1.689510000000000 -0.100330000000000 0.209160000000000
C -1.992040000000000 -1.085890000000000 1.154000000000000
H -1.986090000000000 -0.828870000000000 2.206180000000000
C -2.313560000000000 -2.383890000000000 0.760900000000000
H -2.565530000000000 -3.125910000000000 1.507290000000000
C -2.319140000000000 -2.719740000000000 -0.593150000000000
H -2.584430000000000 -3.721350000000000 -0.905870000000000
C -1.981830000000000 -1.754120000000000 -1.541250000000000
H -1.967940000000000 -2.007510000000000 -2.592690000000000
C -1.674540000000000 -0.453900000000000 -1.144350000000000
H -1.411020000000000 0.276420000000000 -1.897410000000000

GGF10.wfx

