%nprocs=4
%mem=4GB
#p pbepbe aug-cc-pvtz output=wfx scf=(conver=6) int=(grid=ultrafine)

title

0 1
O -2.946330000000000 -0.919740000000000 1.277130000000000
C -3.056900000000000 0.402790000000000 1.463000000000000
O -3.060640000000000 0.905730000000000 2.560450000000000
H -2.920940000000000 -1.097300000000000 0.301750000000000
C -3.196880000000000 1.215680000000000 0.177250000000000
H -3.317580000000000 2.256750000000000 0.454140000000000
H -4.086140000000000 0.876200000000000 -0.358230000000000
N -2.041640000000000 1.093420000000000 -0.691240000000000
H -1.432280000000000 1.876390000000000 -0.892060000000000
C -1.787080000000000 -0.010640000000000 -1.399730000000000
O -2.463350000000000 -1.048780000000000 -1.308580000000000
C -0.575700000000000 0.067340000000000 -2.319290000000000
H -0.965430000000000 -0.034150000000000 -3.334280000000000
N 0.081300000000000 1.367560000000000 -2.192090000000000
H 0.494630000000000 1.643090000000000 -3.072400000000000
H 0.838310000000000 1.300200000000000 -1.517880000000000
C 0.333780000000000 -1.135780000000000 -2.001460000000000
H 1.139810000000000 -1.167480000000000 -2.736480000000000
H -0.253090000000000 -2.047270000000000 -2.106280000000000
C 0.889610000000000 -1.015640000000000 -0.620520000000000
C 0.268810000000000 -1.414920000000000 0.547770000000000
H -0.659680000000000 -1.940980000000000 0.689640000000000
N 1.024470000000000 -1.033260000000000 1.627090000000000
H 0.765270000000000 -1.183880000000000 2.586970000000000
C 2.145510000000000 -0.374900000000000 1.195910000000000
C 3.198800000000000 0.194640000000000 1.915080000000000
H 3.222850000000000 0.169480000000000 2.996630000000000
C 4.216250000000000 0.795840000000000 1.190000000000000
H 5.046560000000000 1.247210000000000 1.715310000000000
C 4.191970000000000 0.824890000000000 -0.218900000000000
H 5.008730000000000 1.294690000000000 -0.749750000000000
C 3.146900000000000 0.260140000000000 -0.931970000000000
H 3.148820000000000 0.280020000000000 -2.014950000000000
C 2.093100000000000 -0.350110000000000 -0.226410000000000

WG01.wfx

