%nprocs=4
%mem=4GB
#p pbepbe aug-cc-pvtz output=wfx scf=(conver=6) int=(grid=ultrafine)

title

0 1
O -1.811940000000000 2.329200000000000 -0.576700000000000
C -0.867630000000000 2.446720000000000 0.363890000000000
O 0.078990000000000 3.189700000000000 0.234700000000000
H -2.419710000000000 1.593490000000000 -0.318130000000000
C -1.078770000000000 1.575570000000000 1.599630000000000
H -2.071070000000000 1.765090000000000 2.009870000000000
H -0.325600000000000 1.842480000000000 2.332960000000000
N -0.962610000000000 0.154570000000000 1.312200000000000
H -0.052420000000000 -0.274890000000000 1.406340000000000
C -1.885280000000000 -0.504990000000000 0.583730000000000
O -2.925830000000000 0.038830000000000 0.183560000000000
C -1.577510000000000 -1.957390000000000 0.246950000000000
H -0.862010000000000 -2.344880000000000 0.973490000000000
N -2.752620000000000 -2.811320000000000 0.249660000000000
H -3.120190000000000 -2.885490000000000 1.191400000000000
H -3.476120000000000 -2.342680000000000 -0.287190000000000
C -0.927140000000000 -1.990630000000000 -1.152680000000000
H -1.703070000000000 -1.758870000000000 -1.885750000000000
H -0.595140000000000 -3.013220000000000 -1.335140000000000
C 0.176130000000000 -0.993870000000000 -1.246530000000000
C 0.113640000000000 0.226580000000000 -1.885190000000000
H -0.650050000000000 0.618690000000000 -2.536080000000000
N 1.207090000000000 0.988280000000000 -1.553660000000000
H 1.286720000000000 1.974190000000000 -1.743900000000000
C 1.976650000000000 0.303060000000000 -0.651080000000000
C 3.137330000000000 0.685860000000000 0.024950000000000
H 3.582600000000000 1.659680000000000 -0.128800000000000
C 3.690100000000000 -0.226210000000000 0.912130000000000
H 4.586310000000000 0.039680000000000 1.455580000000000
C 3.109150000000000 -1.493830000000000 1.117500000000000
H 3.575720000000000 -2.181260000000000 1.809940000000000
C 1.957160000000000 -1.874680000000000 0.445390000000000
H 1.530960000000000 -2.858380000000000 0.600310000000000
C 1.366540000000000 -0.968360000000000 -0.454700000000000

WG02.wfx

