%nprocs=4
%mem=4GB
#p pbepbe aug-cc-pvtz output=wfx scf=(conver=6) int=(grid=ultrafine)

title

0 1
O -4.534840000000000 -0.617250000000000 0.051550000000000
C -4.309410000000000 0.512960000000000 0.730500000000000
O -5.196220000000000 1.259280000000000 1.068030000000000
H -3.673350000000000 -1.075610000000000 -0.099700000000000
C -2.844150000000000 0.775030000000000 1.072920000000000
H -2.499510000000000 -0.016900000000000 1.741600000000000
H -2.789200000000000 1.727740000000000 1.587380000000000
N -1.971500000000000 0.814190000000000 -0.083960000000000
H -1.569030000000000 1.675640000000000 -0.429450000000000
C -1.589350000000000 -0.292150000000000 -0.729160000000000
O -2.036830000000000 -1.419470000000000 -0.462520000000000
C -0.566020000000000 -0.083400000000000 -1.837570000000000
H -1.111220000000000 -0.229960000000000 -2.772920000000000
N -0.060590000000000 1.287730000000000 -1.811460000000000
H 0.243380000000000 1.567010000000000 -2.734700000000000
H 0.755360000000000 1.334030000000000 -1.207790000000000
C 0.510020000000000 -1.174320000000000 -1.707760000000000
H 1.178540000000000 -1.108050000000000 -2.567750000000000
H 0.019420000000000 -2.146000000000000 -1.738200000000000
C 1.281430000000000 -1.013820000000000 -0.439730000000000
C 0.940510000000000 -1.526530000000000 0.796990000000000
H 0.111630000000000 -2.161710000000000 1.063120000000000
N 1.851190000000000 -1.110010000000000 1.737230000000000
H 1.835140000000000 -1.366670000000000 2.708720000000000
C 2.800190000000000 -0.320510000000000 1.141470000000000
C 3.915900000000000 0.323330000000000 1.681310000000000
H 4.156070000000000 0.252000000000000 2.734090000000000
C 4.709060000000000 1.059900000000000 0.814860000000000
H 5.580910000000000 1.571160000000000 1.198950000000000
C 4.403840000000000 1.150330000000000 -0.558070000000000
H 5.050910000000000 1.728020000000000 -1.203840000000000
C 3.296940000000000 0.511280000000000 -1.092450000000000
H 3.082300000000000 0.580560000000000 -2.151640000000000
C 2.467020000000000 -0.238880000000000 -0.239130000000000

WG05.wfx

