%nprocs=4
%mem=4GB
#p pbepbe aug-cc-pvtz output=wfx scf=(conver=6) int=(grid=ultrafine)

title

0 1
O -1.875710000000000 2.287710000000000 -0.578700000000000
C -0.941290000000000 2.423610000000000 0.369300000000000
O -0.010440000000000 3.187700000000000 0.249460000000000
H -2.466690000000000 1.535580000000000 -0.328300000000000
C -1.142440000000000 1.542670000000000 1.600440000000000
H -2.144070000000000 1.702190000000000 2.000590000000000
H -0.404860000000000 1.827050000000000 2.342840000000000
N -0.981860000000000 0.127790000000000 1.307560000000000
H -0.069660000000000 -0.286620000000000 1.434910000000000
C -1.880660000000000 -0.554830000000000 0.574960000000000
O -2.928430000000000 -0.038590000000000 0.158950000000000
C -1.526270000000000 -1.987480000000000 0.232580000000000
H -0.786090000000000 -2.346280000000000 0.949500000000000
N -2.731890000000000 -2.789260000000000 0.359920000000000
H -2.599040000000000 -3.680460000000000 -0.102600000000000
H -3.480610000000000 -2.307200000000000 -0.126470000000000
C -0.882490000000000 -1.982730000000000 -1.178820000000000
H -1.665980000000000 -1.743850000000000 -1.900980000000000
H -0.530520000000000 -2.995890000000000 -1.389950000000000
C 0.211150000000000 -0.973930000000000 -1.257130000000000
C 0.129200000000000 0.253990000000000 -1.879520000000000
H -0.640290000000000 0.642060000000000 -2.525950000000000
N 1.206810000000000 1.030550000000000 -1.532470000000000
H 1.268620000000000 2.020400000000000 -1.708400000000000
C 1.985670000000000 0.346550000000000 -0.637080000000000
C 3.138320000000000 0.740740000000000 0.046250000000000
H 3.566080000000000 1.724520000000000 -0.093320000000000
C 3.706550000000000 -0.173330000000000 0.921270000000000
H 4.596930000000000 0.101090000000000 1.470010000000000
C 3.148250000000000 -1.453990000000000 1.107770000000000
H 3.625580000000000 -2.142420000000000 1.791800000000000
C 2.004400000000000 -1.845910000000000 0.428460000000000
H 1.595100000000000 -2.838420000000000 0.572080000000000
C 1.397670000000000 -0.938060000000000 -0.459320000000000

WG06.wfx

