%nprocs=4
%mem=4GB
#p pbepbe aug-cc-pvtz output=wfx scf=(conver=6) int=(grid=ultrafine)

title

0 1
O 2.321320000000000 0.539620000000000 2.526410000000000
C 1.180700000000000 0.909140000000000 1.907870000000000
O 1.135290000000000 1.718740000000000 1.011230000000000
H 3.031340000000000 1.004800000000000 2.058500000000000
C -0.013890000000000 0.220310000000000 2.523520000000000
H -0.104950000000000 0.564710000000000 3.556420000000000
H 0.149480000000000 -0.855510000000000 2.550370000000000
N -1.188620000000000 0.481050000000000 1.747360000000000
H -1.347350000000000 1.402310000000000 1.365820000000000
C -1.906510000000000 -0.520230000000000 1.193700000000000
O -1.808330000000000 -1.702260000000000 1.514140000000000
C -2.830110000000000 -0.086750000000000 0.060840000000000
H -3.821130000000000 -0.466490000000000 0.309520000000000
N -2.889310000000000 1.366420000000000 -0.071600000000000
H -2.226160000000000 1.662100000000000 -0.782900000000000
H -3.807600000000000 1.656800000000000 -0.378300000000000
C -2.338280000000000 -0.800380000000000 -1.222800000000000
H -3.083130000000000 -0.640550000000000 -2.005150000000000
H -2.283990000000000 -1.870000000000000 -1.021270000000000
C -1.013840000000000 -0.271580000000000 -1.664430000000000
C -0.815270000000000 0.762520000000000 -2.561520000000000
H -1.536120000000000 1.288630000000000 -3.167380000000000
N 0.523980000000000 1.049240000000000 -2.658770000000000
H 0.924230000000000 1.760080000000000 -3.244870000000000
C 1.227830000000000 0.215820000000000 -1.828420000000000
C 2.600160000000000 0.139740000000000 -1.585430000000000
H 3.299140000000000 0.801450000000000 -2.080400000000000
C 3.035000000000000 -0.820410000000000 -0.684310000000000
H 4.092720000000000 -0.915570000000000 -0.477140000000000
C 2.123320000000000 -1.684970000000000 -0.045990000000000
H 2.498830000000000 -2.427010000000000 0.645900000000000
C 0.759930000000000 -1.605840000000000 -0.284420000000000
H 0.070000000000000 -2.269750000000000 0.218080000000000
C 0.287590000000000 -0.634500000000000 -1.185650000000000

WG07.wfx

