%nprocs=4
%mem=4GB
#p pbepbe aug-cc-pvtz output=wfx scf=(conver=6) int=(grid=ultrafine)

title

0 1
O 0.729640000000000 -0.571080000000000 3.573670000000000
C 1.168140000000000 0.569590000000000 3.029770000000000
O 1.786410000000000 1.394300000000000 3.659530000000000
H 0.266600000000000 -1.099030000000000 2.878840000000000
C 0.856140000000000 0.735700000000000 1.546090000000000
H 1.388780000000000 -0.034080000000000 0.980510000000000
H 1.215150000000000 1.711750000000000 1.238950000000000
N -0.562230000000000 0.646390000000000 1.238260000000000
H -1.042070000000000 1.420690000000000 0.799510000000000
C -1.201140000000000 -0.529240000000000 1.163010000000000
O -0.726740000000000 -1.594340000000000 1.583740000000000
C -2.543580000000000 -0.494400000000000 0.458970000000000
H -3.177690000000000 -1.231540000000000 0.957910000000000
N -3.088300000000000 0.861470000000000 0.461160000000000
H -3.880730000000000 0.909290000000000 -0.168360000000000
H -3.440480000000000 1.093380000000000 1.383330000000000
C -2.315680000000000 -0.958730000000000 -0.995460000000000
H -3.269600000000000 -0.882370000000000 -1.523760000000000
H -2.046400000000000 -2.014980000000000 -0.970900000000000
C -1.253480000000000 -0.175840000000000 -1.689950000000000
C -1.396640000000000 1.031800000000000 -2.340640000000000
H -2.288940000000000 1.600050000000000 -2.545560000000000
N -0.164540000000000 1.498340000000000 -2.731940000000000
H -0.005730000000000 2.335580000000000 -3.264340000000000
C 0.804900000000000 0.603870000000000 -2.351090000000000
C 2.191180000000000 0.644450000000000 -2.516660000000000
H 2.677840000000000 1.469910000000000 -3.019730000000000
C 2.924060000000000 -0.418850000000000 -2.010520000000000
H 3.999870000000000 -0.420850000000000 -2.119490000000000
C 2.292400000000000 -1.497690000000000 -1.360220000000000
H 2.897090000000000 -2.310270000000000 -0.981060000000000
C 0.916780000000000 -1.535700000000000 -1.193210000000000
H 0.447870000000000 -2.360640000000000 -0.673730000000000
C 0.147610000000000 -0.469120000000000 -1.690830000000000

WG08.wfx

