%nprocs=4
%mem=4GB
#p pbepbe aug-cc-pvtz output=wfx scf=(conver=6) int=(grid=ultrafine)

title

0 1
O 2.215450000000000 -2.417040000000000 0.625790000000000
C 1.062240000000000 -1.832100000000000 0.999820000000000
O 0.967770000000000 -1.066120000000000 1.932150000000000
H 2.896970000000000 -2.053880000000000 1.211330000000000
C -0.079570000000000 -2.287550000000000 0.130410000000000
H -0.246930000000000 -3.349700000000000 0.325630000000000
H 0.193490000000000 -2.189880000000000 -0.919370000000000
N -1.241320000000000 -1.486300000000000 0.401200000000000
H -1.255200000000000 -0.943400000000000 1.256280000000000
C -1.993870000000000 -1.013100000000000 -0.620320000000000
O -1.922240000000000 -1.420600000000000 -1.775780000000000
C -2.909760000000000 0.139900000000000 -0.245410000000000
H -3.813520000000000 0.022610000000000 -0.849820000000000
N -3.153610000000000 0.181510000000000 1.193930000000000
H -3.663100000000000 1.026080000000000 1.426070000000000
H -3.744350000000000 -0.594880000000000 1.469030000000000
C -2.212280000000000 1.441970000000000 -0.686210000000000
H -2.863630000000000 2.278500000000000 -0.418380000000000
H -2.142280000000000 1.426860000000000 -1.774360000000000
C -0.856960000000000 1.623110000000000 -0.087270000000000
C -0.558770000000000 2.211050000000000 1.124310000000000
H -1.217920000000000 2.666280000000000 1.844970000000000
N 0.794700000000000 2.160490000000000 1.348710000000000
H 1.250640000000000 2.455360000000000 2.193780000000000
C 1.405490000000000 1.518350000000000 0.304800000000000
C 2.750560000000000 1.207440000000000 0.098090000000000
H 3.511160000000000 1.486190000000000 0.816390000000000
C 3.075890000000000 0.522900000000000 -1.064220000000000
H 4.108100000000000 0.264410000000000 -1.258760000000000
C 2.084790000000000 0.163780000000000 -1.999790000000000
H 2.375410000000000 -0.370950000000000 -2.894010000000000
C 0.749590000000000 0.478190000000000 -1.796870000000000
H -0.003330000000000 0.179380000000000 -2.514500000000000
C 0.388610000000000 1.166950000000000 -0.624950000000000

WG10.wfx

