%nprocs=4
%mem=4GB
#p pbepbe aug-cc-pvtz output=wfx scf=(conver=6) int=(grid=ultrafine)

title

0 1
O 1.564050000000000 -2.833510000000000 -0.491690000000000
C 2.147920000000000 -1.774730000000000 -0.434340000000000
O 2.859470000000000 -1.408970000000000 0.637010000000000
H 3.097770000000000 -0.452670000000000 0.534180000000000
C 2.130380000000000 -0.754240000000000 -1.571000000000000
H 1.687120000000000 -1.226110000000000 -2.441090000000000
H 3.151560000000000 -0.449560000000000 -1.801460000000000
N 1.357440000000000 0.431570000000000 -1.242410000000000
H 0.394530000000000 0.476220000000000 -1.535160000000000
C 1.771760000000000 1.321940000000000 -0.319890000000000
O 2.858810000000000 1.206380000000000 0.265220000000000
C 0.820340000000000 2.465570000000000 0.008300000000000
H 1.459520000000000 3.327290000000000 0.205610000000000
N -0.150460000000000 2.830620000000000 -1.007620000000000
H -0.872460000000000 2.127940000000000 -1.109450000000000
H 0.285890000000000 2.974590000000000 -1.909060000000000
C 0.088890000000000 2.092010000000000 1.319480000000000
H -0.643380000000000 2.876190000000000 1.516050000000000
H 0.818230000000000 2.095310000000000 2.129270000000000
C -0.539410000000000 0.740780000000000 1.220640000000000
C 0.064520000000000 -0.428210000000000 1.639890000000000
H 0.976700000000000 -0.563430000000000 2.196200000000000
N -0.660010000000000 -1.512290000000000 1.215720000000000
H -0.325940000000000 -2.462130000000000 1.253880000000000
C -1.736910000000000 -1.079560000000000 0.488800000000000
C -2.741370000000000 -1.805650000000000 -0.155940000000000
H -2.740870000000000 -2.887640000000000 -0.155230000000000
C -3.741620000000000 -1.087950000000000 -0.793530000000000
H -4.533590000000000 -1.619110000000000 -1.303280000000000
C -3.752770000000000 0.321250000000000 -0.777470000000000
H -4.562430000000000 0.847400000000000 -1.264620000000000
C -2.755790000000000 1.043140000000000 -0.140350000000000
H -2.792650000000000 2.125440000000000 -0.118560000000000
C -1.708130000000000 0.345870000000000 0.493810000000000

WG12.wfx

