%nprocs=4
%mem=4GB
#p pbepbe aug-cc-pvtz output=wfx scf=(conver=6) int=(grid=ultrafine)

title

0 1
O -2.711180000000000 0.861350000000000 0.399150000000000
C -2.186880000000000 0.292750000000000 -0.531020000000000
O -1.494400000000000 0.916170000000000 -1.505570000000000
H -1.337040000000000 1.833510000000000 -1.217340000000000
C -2.200830000000000 -1.200820000000000 -0.774500000000000
H -2.852750000000000 -1.410460000000000 -1.624240000000000
H -2.586350000000000 -1.703990000000000 0.106530000000000
N -0.858590000000000 -1.678830000000000 -1.021230000000000
H -0.251720000000000 -1.128580000000000 -1.615570000000000
C -0.218440000000000 -2.456050000000000 -0.110890000000000
O -0.762400000000000 -3.041020000000000 0.818110000000000
C 1.291870000000000 -2.504350000000000 -0.293180000000000
H 1.595010000000000 -3.541480000000000 -0.124400000000000
N 1.697310000000000 -1.981030000000000 -1.596990000000000
H 2.704800000000000 -1.876390000000000 -1.617090000000000
H 1.467240000000000 -2.647430000000000 -2.325990000000000
C 1.895230000000000 -1.642260000000000 0.837370000000000
H 2.948950000000000 -1.462050000000000 0.606020000000000
H 1.864210000000000 -2.238180000000000 1.749090000000000
C 1.169130000000000 -0.360990000000000 1.089300000000000
C 0.279350000000000 -0.175840000000000 2.129020000000000
H -0.021630000000000 -0.874770000000000 2.892250000000000
N -0.238750000000000 1.093020000000000 2.086830000000000
H -1.033380000000000 1.403340000000000 2.619590000000000
C 0.260300000000000 1.745570000000000 0.992510000000000
C -0.036830000000000 3.017080000000000 0.495780000000000
H -0.742140000000000 3.666370000000000 0.997980000000000
C 0.602970000000000 3.411680000000000 -0.672780000000000
H 0.399870000000000 4.390590000000000 -1.085920000000000
C 1.522250000000000 2.560880000000000 -1.321270000000000
H 2.004580000000000 2.902530000000000 -2.226940000000000
C 1.812540000000000 1.299570000000000 -0.826020000000000
H 2.496270000000000 0.649610000000000 -1.353050000000000
C 1.168700000000000 0.860120000000000 0.343460000000000

WG15.wfx

