%nprocs=4
%mem=4GB
#p pbepbe aug-cc-pvtz output=wfx scf=(conver=6) int=(grid=ultrafine)

title

0 1
O -1.415800000000000 2.240290000000000 -1.972650000000000
C -0.810920000000000 2.515460000000000 -0.959360000000000
O -1.390540000000000 3.174480000000000 0.046620000000000
H -0.711610000000000 3.340880000000000 0.746310000000000
C 0.660600000000000 2.163240000000000 -0.746050000000000
H 1.226150000000000 3.096270000000000 -0.689200000000000
H 1.000840000000000 1.582850000000000 -1.596660000000000
N 0.906600000000000 1.390200000000000 0.461580000000000
H 1.182090000000000 0.418040000000000 0.376330000000000
C 0.863030000000000 1.958190000000000 1.678120000000000
O 0.543290000000000 3.143700000000000 1.849850000000000
C 1.176910000000000 1.047080000000000 2.853300000000000
H 1.080580000000000 1.638320000000000 3.758260000000000
H 2.191450000000000 0.659990000000000 2.768270000000000
N 0.272770000000000 -0.078450000000000 2.892720000000000
H -0.668000000000000 0.005550000000000 3.252540000000000
C 0.534030000000000 -1.199530000000000 2.187580000000000
O 1.596790000000000 -1.385720000000000 1.594300000000000
C -0.595670000000000 -2.223510000000000 2.177940000000000
H -0.358080000000000 -2.956510000000000 2.952940000000000
N -1.849820000000000 -1.573220000000000 2.555920000000000
H -2.213430000000000 -1.078840000000000 1.745740000000000
H -2.539250000000000 -2.270120000000000 2.808690000000000
C -0.620600000000000 -2.936610000000000 0.815890000000000
H -1.418490000000000 -3.681650000000000 0.848400000000000
H 0.319060000000000 -3.471760000000000 0.684230000000000
C -0.819450000000000 -1.999790000000000 -0.333020000000000
C -2.006740000000000 -1.418910000000000 -0.749850000000000
H -3.005610000000000 -1.536060000000000 -0.360050000000000
N -1.792600000000000 -0.666320000000000 -1.877310000000000
H -2.434020000000000 0.013550000000000 -2.252900000000000
C -0.465260000000000 -0.719650000000000 -2.210400000000000
C 0.213370000000000 -0.129630000000000 -3.279670000000000
H -0.301660000000000 0.508600000000000 -3.983860000000000
C 1.573710000000000 -0.377650000000000 -3.381380000000000
H 2.134780000000000 0.062960000000000 -4.194540000000000
C 2.239730000000000 -1.191780000000000 -2.441070000000000
H 3.302440000000000 -1.360790000000000 -2.551320000000000
C 1.562790000000000 -1.784500000000000 -1.386560000000000
H 2.086250000000000 -2.395830000000000 -0.665570000000000
C 0.180920000000000 -1.551830000000000 -1.256730000000000

WGG04.wfx

