%nprocs=4
%mem=4GB
#p pbepbe aug-cc-pvtz output=wfx scf=(conver=6) int=(grid=ultrafine)

title

0 1
O -3.019790000000000 -1.262220000000000 -1.355970000000000
C -2.419690000000000 -0.407590000000000 -1.976900000000000
O -2.514490000000000 0.882020000000000 -1.666920000000000
H -1.916150000000000 1.399410000000000 -2.264960000000000
C -1.502250000000000 -0.736490000000000 -3.147630000000000
H -1.872120000000000 -0.227340000000000 -4.039430000000000
H -1.530490000000000 -1.808560000000000 -3.307740000000000
N -0.128150000000000 -0.332530000000000 -2.914760000000000
H 0.578820000000000 -0.999380000000000 -2.603850000000000
C 0.238530000000000 0.958330000000000 -2.950590000000000
O -0.560800000000000 1.886120000000000 -3.140560000000000
C 1.721830000000000 1.201800000000000 -2.724740000000000
H 1.920790000000000 2.244770000000000 -2.947480000000000
H 2.304210000000000 0.563430000000000 -3.390380000000000
N 2.103590000000000 0.927960000000000 -1.356170000000000
H 2.324040000000000 1.662290000000000 -0.694860000000000
C 2.311690000000000 -0.320840000000000 -0.906940000000000
O 2.112230000000000 -1.332680000000000 -1.591010000000000
C 2.837770000000000 -0.401230000000000 0.522930000000000
H 3.882710000000000 -0.707440000000000 0.427150000000000
N 2.803260000000000 0.919950000000000 1.149880000000000
H 3.517770000000000 0.987670000000000 1.862390000000000
H 1.910670000000000 1.041230000000000 1.621040000000000
C 2.063760000000000 -1.492950000000000 1.281000000000000
H 2.544930000000000 -1.647140000000000 2.248890000000000
H 2.141240000000000 -2.422220000000000 0.717770000000000
C 0.633610000000000 -1.108050000000000 1.465390000000000
C -0.409860000000000 -1.393230000000000 0.602950000000000
H -0.410230000000000 -1.994610000000000 -0.290890000000000
N -1.568150000000000 -0.825050000000000 1.061770000000000
H -2.444010000000000 -0.866440000000000 0.556720000000000
C -1.311890000000000 -0.146000000000000 2.219970000000000
C -2.165170000000000 0.592730000000000 3.043870000000000
H -3.212370000000000 0.715290000000000 2.801090000000000
C -1.619880000000000 1.161690000000000 4.184210000000000
H -2.252790000000000 1.739520000000000 4.843660000000000
C -0.257160000000000 0.995420000000000 4.505370000000000
H 0.128800000000000 1.443220000000000 5.411130000000000
C 0.591080000000000 0.267460000000000 3.686800000000000
H 1.632580000000000 0.138320000000000 3.955300000000000
C 0.072900000000000 -0.312750000000000 2.513360000000000

WGG01.wfx

