%nprocs=4
%mem=4GB
#p pbepbe aug-cc-pvtz output=wfx scf=(conver=6) int=(grid=ultrafine)

title

0 1
O 1.982660000000000 -1.141740000000000 -2.863880000000000
C 2.493340000000000 -0.364840000000000 -2.079790000000000
O 3.720500000000000 -0.544720000000000 -1.607140000000000
H 3.900760000000000 0.151770000000000 -0.925190000000000
C 1.775000000000000 0.877070000000000 -1.562190000000000
H 0.831960000000000 0.988360000000000 -2.085990000000000
H 2.402370000000000 1.749670000000000 -1.751150000000000
N 1.509990000000000 0.801500000000000 -0.137550000000000
H 0.592950000000000 0.529990000000000 0.189160000000000
C 2.495010000000000 0.974680000000000 0.758230000000000
O 3.673060000000000 1.162950000000000 0.426560000000000
C 2.106110000000000 0.921170000000000 2.223530000000000
H 2.539110000000000 1.796480000000000 2.703590000000000
H 2.577070000000000 0.033410000000000 2.645170000000000
N 0.693230000000000 0.839500000000000 2.461130000000000
H 0.095440000000000 1.653080000000000 2.514770000000000
C 0.078400000000000 -0.348170000000000 2.695660000000000
O 0.667840000000000 -1.420760000000000 2.752950000000000
C -1.439250000000000 -0.245200000000000 2.834900000000000
H -1.668530000000000 -0.485960000000000 3.874900000000000
N -1.895170000000000 1.121270000000000 2.571800000000000
H -2.766630000000000 1.296410000000000 3.054540000000000
H -2.086290000000000 1.231320000000000 1.580620000000000
C -2.061780000000000 -1.318320000000000 1.922980000000000
H -3.147670000000000 -1.277470000000000 2.030340000000000
H -1.727320000000000 -2.295310000000000 2.268860000000000
C -1.665640000000000 -1.127600000000000 0.494060000000000
C -0.609790000000000 -1.759240000000000 -0.142030000000000
H 0.082930000000000 -2.482780000000000 0.256060000000000
N -0.524810000000000 -1.337550000000000 -1.444390000000000
H 0.227360000000000 -1.558200000000000 -2.089290000000000
C -1.496550000000000 -0.403520000000000 -1.680170000000000
C -1.782520000000000 0.320960000000000 -2.841540000000000
H -1.196740000000000 0.188540000000000 -3.742120000000000
C -2.857640000000000 1.195820000000000 -2.799130000000000
H -3.109800000000000 1.770900000000000 -3.679390000000000
C -3.639820000000000 1.335860000000000 -1.634880000000000
H -4.485090000000000 2.010360000000000 -1.646950000000000
C -3.353910000000000 0.619910000000000 -0.483120000000000
H -3.982220000000000 0.724310000000000 0.393000000000000
C -2.250890000000000 -0.255740000000000 -0.479700000000000

WGG02.wfx

