%nprocs=4
%mem=4GB
#p pbepbe aug-cc-pvtz output=wfx scf=(conver=6) int=(grid=ultrafine)

title

0 1
O -1.445250000000000 -0.796960000000000 -3.671170000000000
C -0.188640000000000 -0.680520000000000 -3.252960000000000
O 0.626270000000000 -1.570420000000000 -3.397430000000000
H -1.942830000000000 0.012050000000000 -3.396310000000000
C 0.142420000000000 0.643020000000000 -2.574470000000000
H -0.130660000000000 1.460380000000000 -3.243710000000000
H 1.204760000000000 0.685680000000000 -2.366270000000000
N -0.583140000000000 0.812230000000000 -1.330010000000000
H -0.133310000000000 0.590660000000000 -0.450670000000000
C -1.875280000000000 1.175980000000000 -1.348340000000000
O -2.512550000000000 1.313800000000000 -2.400330000000000
C -2.539570000000000 1.440060000000000 -0.012760000000000
H -3.408060000000000 0.787180000000000 0.049680000000000
H -2.890430000000000 2.471130000000000 -0.027270000000000
N -1.716410000000000 1.186970000000000 1.140850000000000
H -1.057770000000000 1.878420000000000 1.456690000000000
C -1.853150000000000 0.031890000000000 1.859520000000000
O -2.663650000000000 -0.836250000000000 1.563860000000000
C -0.925680000000000 -0.121340000000000 3.054710000000000
H -0.343370000000000 0.791490000000000 3.196780000000000
N -1.644050000000000 -0.404110000000000 4.291270000000000
H -2.237800000000000 0.381390000000000 4.533110000000000
H -2.274690000000000 -1.179050000000000 4.108210000000000
C 0.021650000000000 -1.287790000000000 2.758230000000000
H -0.583220000000000 -2.196120000000000 2.724630000000000
H 0.708740000000000 -1.378790000000000 3.601030000000000
C 0.758020000000000 -1.133310000000000 1.471250000000000
C 0.623750000000000 -1.917360000000000 0.341730000000000
H -0.037490000000000 -2.750850000000000 0.167420000000000
N 1.501450000000000 -1.502420000000000 -0.630140000000000
H 1.486090000000000 -1.811460000000000 -1.596220000000000
C 2.199690000000000 -0.417870000000000 -0.168180000000000
C 3.185650000000000 0.355160000000000 -0.790740000000000
H 3.532230000000000 0.125500000000000 -1.790420000000000
C 3.719340000000000 1.412790000000000 -0.069150000000000
H 4.483820000000000 2.030280000000000 -0.520410000000000
C 3.297770000000000 1.687060000000000 1.247980000000000
H 3.750260000000000 2.510320000000000 1.783870000000000
C 2.331810000000000 0.912740000000000 1.871250000000000
H 2.041760000000000 1.117570000000000 2.894360000000000
C 1.754010000000000 -0.154980000000000 1.159460000000000

WGG09.wfx

