%nprocs=4
%mem=4GB
#p pbepbe aug-cc-pvtz output=wfx scf=(conver=6) int=(grid=ultrafine)

title

0 1
O -2.034230000000000 3.201900000000000 0.507670000000000
C -0.846820000000000 3.054740000000000 0.709230000000000
O 0.058800000000000 3.303410000000000 -0.236340000000000
H 0.951670000000000 3.015960000000000 0.093960000000000
C -0.288510000000000 2.553620000000000 2.034590000000000
H -1.115010000000000 2.450910000000000 2.728550000000000
H 0.424120000000000 3.285840000000000 2.420210000000000
N 0.372370000000000 1.266340000000000 1.907060000000000
H -0.015920000000000 0.430530000000000 2.340460000000000
C 1.576770000000000 1.152610000000000 1.328180000000000
O 2.153240000000000 2.098600000000000 0.770940000000000
C 2.219770000000000 -0.221490000000000 1.426760000000000
H 2.393190000000000 -0.450480000000000 2.478810000000000
H 3.171500000000000 -0.167740000000000 0.907670000000000
N 1.432500000000000 -1.296190000000000 0.857360000000000
H 1.550560000000000 -1.513360000000000 -0.122600000000000
C 0.380840000000000 -1.842790000000000 1.506680000000000
O 0.001490000000000 -1.439050000000000 2.612690000000000
C -0.306390000000000 -3.012960000000000 0.815350000000000
H 0.352740000000000 -3.400260000000000 0.038620000000000
N -0.615210000000000 -4.100380000000000 1.732160000000000
H 0.244620000000000 -4.512870000000000 2.076300000000000
H -1.067590000000000 -3.695130000000000 2.546220000000000
C -1.610090000000000 -2.519840000000000 0.169040000000000
H -2.328440000000000 -2.335810000000000 0.971320000000000
H -2.002290000000000 -3.338490000000000 -0.436710000000000
C -1.416620000000000 -1.268350000000000 -0.617920000000000
C -2.035080000000000 -0.055890000000000 -0.386140000000000
H -2.803610000000000 0.197000000000000 0.326630000000000
N -1.537550000000000 0.896880000000000 -1.236600000000000
H -1.793980000000000 1.872590000000000 -1.205090000000000
C -0.554200000000000 0.343600000000000 -2.008060000000000
C 0.288590000000000 0.933300000000000 -2.953040000000000
H 0.219540000000000 1.988140000000000 -3.182350000000000
C 1.224100000000000 0.117990000000000 -3.572720000000000
H 1.896450000000000 0.542900000000000 -4.305220000000000
C 1.309570000000000 -1.256250000000000 -3.272250000000000
H 2.034730000000000 -1.866090000000000 -3.794220000000000
C 0.473140000000000 -1.841860000000000 -2.331980000000000
H 0.531090000000000 -2.906830000000000 -2.142250000000000
C -0.470050000000000 -1.036800000000000 -1.663920000000000

WGG03.wfx

