%nprocs=4
%mem=4GB
#p pbepbe aug-cc-pvtz output=wfx scf=(conver=6) int=(grid=ultrafine)

title

0 1
O -1.780470000000000 -3.440140000000000 0.000120000000000
C -0.633530000000000 -3.171320000000000 0.294680000000000
O 0.342820000000000 -3.177390000000000 -0.609400000000000
H 1.173060000000000 -2.830660000000000 -0.185190000000000
C -0.216420000000000 -2.786500000000000 1.707230000000000
H 0.551910000000000 -3.483510000000000 2.049770000000000
H -1.088990000000000 -2.867920000000000 2.345530000000000
N 0.296510000000000 -1.430890000000000 1.796030000000000
H -0.207480000000000 -0.709080000000000 2.312180000000000
C 1.517380000000000 -1.115330000000000 1.341970000000000
O 2.227510000000000 -1.903280000000000 0.699400000000000
C 2.019930000000000 0.269380000000000 1.725690000000000
H 2.998510000000000 0.387750000000000 1.271830000000000
H 2.121620000000000 0.300750000000000 2.812280000000000
N 1.178280000000000 1.369770000000000 1.309890000000000
H 1.414730000000000 1.916340000000000 0.492590000000000
C 0.025930000000000 1.688010000000000 1.923800000000000
O -0.462160000000000 1.030190000000000 2.850710000000000
C -0.677670000000000 2.914580000000000 1.372960000000000
H -1.149100000000000 3.396870000000000 2.234020000000000
N 0.265350000000000 3.778480000000000 0.665040000000000
H 0.866280000000000 4.257440000000000 1.326460000000000
H -0.247600000000000 4.498630000000000 0.170130000000000
C -1.797680000000000 2.451460000000000 0.415640000000000
H -2.104080000000000 3.321270000000000 -0.174320000000000
H -2.655410000000000 2.167650000000000 1.026180000000000
C -1.451580000000000 1.290810000000000 -0.458930000000000
C -2.071170000000000 0.058620000000000 -0.364560000000000
H -2.871560000000000 -0.251850000000000 0.288270000000000
N -1.533000000000000 -0.811990000000000 -1.272020000000000
H -1.776510000000000 -1.789610000000000 -1.340400000000000
C -0.529080000000000 -0.183480000000000 -1.956720000000000
C 0.329990000000000 -0.687110000000000 -2.936400000000000
H 0.268050000000000 -1.719130000000000 -3.253610000000000
C 1.267040000000000 0.182650000000000 -3.470820000000000
H 1.951560000000000 -0.172570000000000 -4.228930000000000
C 1.342300000000000 1.522530000000000 -3.041360000000000
H 2.078210000000000 2.177810000000000 -3.488110000000000
C 0.496030000000000 2.018770000000000 -2.061440000000000
H 0.580060000000000 3.044470000000000 -1.733590000000000
C -0.459220000000000 1.159530000000000 -1.484750000000000

WGG06.wfx

