%nprocs=4
%mem=4GB
#p pbepbe aug-cc-pvtz output=wfx scf=(conver=6) int=(grid=ultrafine)

title

0 1
O 0.465900000000000 3.209730000000000 2.019250000000000
C 0.689830000000000 3.055680000000000 0.836560000000000
O -0.239690000000000 3.294150000000000 -0.087840000000000
H 0.108820000000000 3.002550000000000 -0.972710000000000
C 2.027890000000000 2.557690000000000 0.305890000000000
H 2.706820000000000 2.462730000000000 1.145730000000000
H 2.423490000000000 3.288140000000000 -0.403070000000000
N 1.919990000000000 1.266630000000000 -0.351020000000000
H 2.347510000000000 0.434360000000000 0.051120000000000
C 1.364450000000000 1.143780000000000 -1.565630000000000
O 0.813120000000000 2.084050000000000 -2.156750000000000
C 1.482570000000000 -0.232640000000000 -2.199360000000000
H 2.538730000000000 -0.461390000000000 -2.345890000000000
H 0.987040000000000 -0.185240000000000 -3.163730000000000
N 0.894380000000000 -1.302350000000000 -1.420330000000000
H -0.071980000000000 -1.545970000000000 -1.582120000000000
C 1.520710000000000 -1.846030000000000 -0.356730000000000
O 2.612260000000000 -1.436370000000000 0.054650000000000
C 0.811690000000000 -3.000330000000000 0.323480000000000
H 0.027450000000000 -3.367990000000000 -0.338080000000000
N 1.795510000000000 -4.061060000000000 0.498880000000000
H 2.613010000000000 -3.653850000000000 0.941320000000000
H 1.429580000000000 -4.758760000000000 1.135980000000000
C 0.169440000000000 -2.489940000000000 1.629480000000000
H 0.975620000000000 -2.284390000000000 2.337030000000000
H -0.433360000000000 -3.303720000000000 2.043350000000000
C -0.636600000000000 -1.252120000000000 1.421720000000000
C -0.418800000000000 -0.032420000000000 2.031670000000000
H 0.286210000000000 0.232740000000000 2.803180000000000
N -1.272060000000000 0.909220000000000 1.518700000000000
H -1.246670000000000 1.887900000000000 1.764690000000000
C -2.031590000000000 0.341390000000000 0.534560000000000
C -2.975990000000000 0.917330000000000 -0.318330000000000
H -3.213140000000000 1.971060000000000 -0.258760000000000
C -3.584210000000000 0.090390000000000 -1.250850000000000
H -4.315780000000000 0.504560000000000 -1.930880000000000
C -3.272270000000000 -1.281950000000000 -1.324210000000000
H -3.784020000000000 -1.901320000000000 -2.048540000000000
C -2.332270000000000 -1.853620000000000 -0.478220000000000
H -2.132360000000000 -2.916880000000000 -0.530610000000000
C -1.675960000000000 -1.037110000000000 0.463650000000000

WGG08.wfx

