%nprocs=4
%mem=4GB
#p pbepbe aug-cc-pvtz output=wfx scf=(conver=6) int=(grid=ultrafine)

title

0 1
O -1.383190000000000 -3.457320000000000 -0.028860000000000
C -0.829190000000000 -2.787550000000000 -0.873240000000000
O -1.510790000000000 -2.006210000000000 -1.712710000000000
H -0.868990000000000 -1.589720000000000 -2.343720000000000
C 0.687880000000000 -2.776870000000000 -1.063250000000000
H 0.915950000000000 -3.184240000000000 -2.049800000000000
H 1.130310000000000 -3.406370000000000 -0.300000000000000
N 1.274970000000000 -1.449280000000000 -0.967390000000000
H 1.677550000000000 -1.162840000000000 -0.081470000000000
C 1.117630000000000 -0.551320000000000 -1.947290000000000
O 0.447920000000000 -0.790350000000000 -2.967910000000000
C 1.698810000000000 0.826740000000000 -1.744150000000000
H 2.282600000000000 1.090670000000000 -2.626790000000000
H 2.326990000000000 0.906770000000000 -0.859320000000000
N 0.555560000000000 1.696960000000000 -1.565620000000000
H -0.314380000000000 1.416350000000000 -1.985610000000000
C 0.541610000000000 2.691680000000000 -0.645660000000000
O 1.554120000000000 3.102890000000000 -0.087750000000000
C -0.843710000000000 3.216830000000000 -0.274510000000000
H -0.774350000000000 4.304940000000000 -0.274700000000000
N -1.969810000000000 2.822410000000000 -1.102090000000000
H -1.836760000000000 3.056550000000000 -2.077000000000000
H -2.147420000000000 1.827480000000000 -1.021850000000000
C -1.108660000000000 2.757410000000000 1.172010000000000
H -2.076280000000000 3.163190000000000 1.468100000000000
H -0.344200000000000 3.194100000000000 1.813490000000000
C -1.100250000000000 1.268910000000000 1.319980000000000
C -2.177330000000000 0.410530000000000 1.185340000000000
H -3.207960000000000 0.639400000000000 0.965020000000000
N -1.786940000000000 -0.881910000000000 1.434490000000000
H -2.339100000000000 -1.708210000000000 1.261360000000000
C -0.447400000000000 -0.901950000000000 1.714260000000000
C 0.384830000000000 -1.972410000000000 2.055580000000000
H -0.002800000000000 -2.979000000000000 2.126690000000000
C 1.725890000000000 -1.689640000000000 2.280390000000000
H 2.400760000000000 -2.492240000000000 2.547440000000000
C 2.220380000000000 -0.370080000000000 2.186810000000000
H 3.269590000000000 -0.186110000000000 2.376470000000000
C 1.384510000000000 0.696950000000000 1.885110000000000
H 1.774140000000000 1.703650000000000 1.821560000000000
C 0.022790000000000 0.440730000000000 1.641220000000000

WGG12.wfx

