%nprocs=4
%mem=4GB
#p pbepbe aug-cc-pvtz output=wfx scf=(conver=6) int=(grid=ultrafine)

title

0 1
O 1.519130000000000 -0.812840000000000 3.299890000000000
C 2.232070000000000 -0.385450000000000 2.413870000000000
O 3.237570000000000 -1.096510000000000 1.915750000000000
H 3.692120000000000 -0.558870000000000 1.214260000000000
C 2.049980000000000 1.007520000000000 1.817340000000000
H 2.931740000000000 1.599700000000000 2.075180000000000
H 1.175170000000000 1.455150000000000 2.275880000000000
N 1.867850000000000 1.023100000000000 0.377760000000000
H 0.975250000000000 1.303340000000000 -0.028790000000000
C 2.873760000000000 0.768010000000000 -0.468770000000000
O 4.000070000000000 0.403500000000000 -0.096220000000000
C 2.553520000000000 0.962530000000000 -1.943290000000000
H 3.444790000000000 0.695010000000000 -2.500930000000000
H 2.318780000000000 2.015050000000000 -2.114580000000000
N 1.443060000000000 0.151400000000000 -2.399350000000000
H 1.580000000000000 -0.593400000000000 -3.067510000000000
C 0.162940000000000 0.522250000000000 -2.185360000000000
O -0.147720000000000 1.494630000000000 -1.493260000000000
C -0.873520000000000 -0.400480000000000 -2.796100000000000
H -1.782940000000000 0.197430000000000 -2.888660000000000
N -0.380280000000000 -0.961040000000000 -4.054860000000000
H -0.943200000000000 -1.763420000000000 -4.311770000000000
H -0.476940000000000 -0.289110000000000 -4.807280000000000
C -1.131670000000000 -1.567820000000000 -1.823020000000000
H -0.276310000000000 -2.244200000000000 -1.891550000000000
H -2.007900000000000 -2.112060000000000 -2.188770000000000
C -1.317740000000000 -1.140500000000000 -0.410790000000000
C -0.423680000000000 -1.353430000000000 0.619250000000000
H 0.506450000000000 -1.900080000000000 0.618600000000000
N -0.883710000000000 -0.760290000000000 1.767240000000000
H -0.372210000000000 -0.767080000000000 2.640100000000000
C -2.082470000000000 -0.148220000000000 1.508490000000000
C -2.927160000000000 0.578680000000000 2.351490000000000
H -2.683720000000000 0.735460000000000 3.394200000000000
C -4.094280000000000 1.086760000000000 1.801790000000000
H -4.771500000000000 1.653710000000000 2.425850000000000
C -4.417020000000000 0.876720000000000 0.445950000000000
H -5.337570000000000 1.288160000000000 0.054740000000000
C -3.578530000000000 0.156980000000000 -0.389450000000000
H -3.841550000000000 0.002860000000000 -1.428490000000000
C -2.388290000000000 -0.371140000000000 0.137170000000000

WGG10.wfx

