%nprocs=4
%mem=4GB
#p pbepbe aug-cc-pvtz output=wfx scf=(conver=6) int=(grid=ultrafine)

title

0 1
O -1.305670000000000 -3.543750000000000 -0.114500000000000
C -0.718480000000000 -2.860790000000000 -0.926840000000000
O -1.368230000000000 -2.117730000000000 -1.821010000000000
H -0.702140000000000 -1.658860000000000 -2.395650000000000
C 0.806380000000000 -2.788910000000000 -1.003730000000000
H 1.122750000000000 -3.179910000000000 -1.972360000000000
H 1.216020000000000 -3.405490000000000 -0.212140000000000
N 1.332020000000000 -1.440790000000000 -0.859810000000000
H 1.660470000000000 -1.146030000000000 0.052810000000000
C 1.210830000000000 -0.541500000000000 -1.845660000000000
O 0.624340000000000 -0.798000000000000 -2.910740000000000
C 1.754110000000000 0.843640000000000 -1.595650000000000
H 2.374340000000000 1.125000000000000 -2.447890000000000
H 2.347010000000000 0.912940000000000 -0.685250000000000
N 0.603690000000000 1.709170000000000 -1.456990000000000
H -0.293930000000000 1.433590000000000 -1.834810000000000
C 0.584980000000000 2.727970000000000 -0.571920000000000
O 1.572640000000000 3.146680000000000 0.025240000000000
C -0.806350000000000 3.280320000000000 -0.301800000000000
H -0.699070000000000 4.363800000000000 -0.203300000000000
N -1.751830000000000 2.871100000000000 -1.338220000000000
H -2.700530000000000 3.016880000000000 -1.015230000000000
H -1.638020000000000 3.447250000000000 -2.164230000000000
C -1.252620000000000 2.728730000000000 1.064220000000000
H -2.262850000000000 3.097520000000000 1.261350000000000
H -0.600730000000000 3.167840000000000 1.820130000000000
C -1.217320000000000 1.238680000000000 1.182890000000000
C -2.246480000000000 0.354090000000000 0.924700000000000
H -3.241190000000000 0.549630000000000 0.558710000000000
N -1.855050000000000 -0.927760000000000 1.218690000000000
H -2.362570000000000 -1.768040000000000 0.985420000000000
C -0.557650000000000 -0.913440000000000 1.654150000000000
C 0.260810000000000 -1.963230000000000 2.081370000000000
H -0.105810000000000 -2.979750000000000 2.108800000000000
C 1.564080000000000 -1.647280000000000 2.443500000000000
H 2.228460000000000 -2.433700000000000 2.776620000000000
C 2.032530000000000 -0.315870000000000 2.399560000000000
H 3.053310000000000 -0.106750000000000 2.690880000000000
C 1.205410000000000 0.730840000000000 2.014320000000000
H 1.577600000000000 1.745980000000000 1.985490000000000
C -0.117790000000000 0.441590000000000 1.633930000000000

WGG14.wfx

