%nprocs=4
%mem=4GB
#p pbepbe aug-cc-pvtz output=wfx scf=(conver=6) int=(grid=ultrafine)

title

0 1
bi 0.881735160765744 -1.213591365291566 -0.288446376403070
h 0.663049288684957 -2.948809784145360 0.006687463117390
h 0.116610148165250 -0.870369015152479 1.263340177317541
h -0.694705039811218 -1.167415755656680 -1.075889160014821
o 0.028978306469313 1.894709874222506 0.010813078674748
h -0.661419416818584 1.745380955399549 0.659836887351765
h -0.334248447455451 2.560095090624036 -0.576342070043548

bih3_h2o.wfx

