%nprocs=4
%mem=4GB
#p pbepbe aug-cc-pvtz output=wfx scf=(conver=6) int=(grid=ultrafine)

title

0 1
bi 0.000000000000000 0.000000000000000 -1.788378794868104
h -0.715983658916992 -1.240120074633294 -2.824462743521569
h -0.715983658916992 1.240120074633294 -2.824462743521569
h 1.431967317833983 0.000000000000000 -2.824462743521569
n 0.000000000000000 0.000000000000000 2.280268673763959
h -0.935681128887496 0.000000000000000 2.660658516883538
h 0.467840564443748 -0.810323627458274 2.660658516883538
h 0.467840564443748 0.810323627458274 2.660658516883538

bih3_nh3.wfx

