%nprocs=4
%mem=4GB
#p pbepbe aug-cc-pvtz output=wfx scf=(conver=6) int=(grid=ultrafine)

title

0 1
bi 0.000000000000000 0.000000000000000 0.765204001752833
h -0.718227717852719 -1.244006898725156 -0.255081348537720
h -0.718227717852719 1.244006898725156 -0.255081348537720
h 1.436455435705438 0.000000000000000 -0.255081348537720

bih3.wfx

