%nprocs=4
%mem=4GB
#p pbepbe aug-cc-pvtz output=wfx scf=(conver=6) int=(grid=ultrafine)

title

0 1
pb 0.000000000000000 0.000000000000000 -2.232699507130970
h -0.992635941703583 0.992635941703577 -1.233759935015863
h 0.992635941703583 -0.992635941703577 -1.233759935015863
h -0.994489425794408 -0.994489425794413 -3.228288753307761
h 0.994489425794408 0.994489425794408 -3.228288753307761
pb 0.000000000000000 0.000000000000000 2.232699507130970
h -0.994489425794408 0.994489425794413 3.228288753307761
h 0.994489425794408 -0.994489425794408 3.228288753307761
h -0.992635941703583 -0.992635941703577 1.233759935015863
h 0.992635941703583 0.992635941703577 1.233759935015863

pbh4_2.wfx

