%nprocs=4
%mem=4GB
#p pbepbe aug-cc-pvtz output=wfx scf=(conver=6) int=(grid=ultrafine)

title

0 1
sb 0.000000000000000 0.000000000000000 0.681238310117747
h 0.000000000000000 0.000000000000000 -2.106604280688722
cl 0.000000000000000 0.000000000000000 -3.386896664503588
h -0.700276619481984 -1.212914684295370 1.603994628512505
h -0.700276619481984 1.212914684295370 1.603994628512505
h 1.400553238963962 0.000000000000000 1.603994628512505

sbh3_hcl.wfx

