%nprocs=4
%mem=4GB
#p pbepbe aug-cc-pvtz output=wfx scf=(conver=6) int=(grid=ultrafine)

title

0 1
sb 0.000000000000000 0.000000000000000 -0.709625896810514
h -0.695221059652088 -1.204158197809293 0.236547097937292
h -0.695221059652088 1.204158197809293 0.236547097937292
h 1.390442119304182 0.000000000000000 0.236547097937292

sbh3.wfx

