%nprocs=4
%mem=4GB
#p pbepbe aug-cc-pvtz output=wfx scf=(conver=6) int=(grid=ultrafine)

title

0 1
te 0.000000000000000 0.000000000000000 -1.620223850635728
h -1.147291766569405 0.000000000000000 -2.786763999722152
h 1.147291766569405 0.000000000000000 -2.786763999722152
o 0.000000000000000 0.000000000000000 2.005277878429264
h -0.756102340840844 0.000000000000000 2.594236985825379
h 0.756102340840844 0.000000000000000 2.594236985825379

teh2_h2o.wfx

