%nprocs=4
%mem=4GB
#p pbepbe aug-cc-pvtz output=wfx scf=(conver=6) int=(grid=ultrafine)

title

0 1
te -1.116055219756163 -1.073851875441780 0.000000000000000
h -1.112791419961887 0.558638327871520 0.000000000000000
h -2.751805384462193 -1.073715557447174 0.000000000000000
h 2.415744980368860 1.497710445790238 0.000000000000000
br 2.564907043811393 0.091218659227205 0.000000000000000

teh2_hbr.wfx

