%nprocs=4
%mem=2GB
#p pbepbe aug-cc-pvtz output=wfx scf=(conver=6) int=(grid=ultrafine)

title

0 1
N	-0.254133 0.506719 0.468554
H	0.357052 0.405029 1.278294
N	0.254133 -0.506719 -0.468554
H	-0.357052 -0.405029 -1.278294
C	0.016388 1.826251 -0.098060
H	-0.653080 2.001262 -0.949338
H	-0.208389 2.583710 0.658477
H	1.052371 1.953140 -0.448537
C	-0.016388 -1.826251 0.098060
H	0.208389 -2.583710 -0.658477
H	0.653080 -2.001262 0.949338
H	-1.052371 -1.953140 0.448537

12dimethylhydrazine.wfx


