%nprocs=4
%mem=2GB
#p pbepbe aug-cc-pvtz output=wfx scf=(conver=6) int=(grid=ultrafine)

title

0 1
C	0.000000 1.235269 0.101165
O	-1.036309 1.709178 -0.300105
C	1.364265 1.753625 -0.293785
H	1.272032 2.515138 -1.068742
H	1.862899 2.181466 0.584022
H	1.988442 0.921766 -0.638137
C	0.000000 0.000000 1.015442
H	0.899532 -0.031158 1.633091
H	-0.899532 0.031158 1.633091
C	0.000000 -1.235269 0.101165
O	1.036309 -1.709178 -0.300105
C	-1.364265 -1.753625 -0.293785
H	-1.862899 -2.181466 0.584022
H	-1.988442 -0.921766 -0.638137
H	-1.272032 -2.515138 -1.068742

acetylacetone.wfx


