%nprocs=4
%mem=2GB
#p pbepbe aug-cc-pvtz output=wfx scf=(conver=6) int=(grid=ultrafine)

title

0 1
C	-1.169406 -0.148461 -0.000009
H	-1.160186 -1.239523 -0.000105
H	-1.708574 0.224355 0.879305
H	-1.708664 0.224612 -0.879151
C	0.236309 0.396371 -0.000007
O	1.234753 -0.275809 0.000000
H	0.297985 1.509568 0.000045

acetaldehyde.wfx


