%nprocs=4
%mem=2GB
#p pbepbe aug-cc-pvtz output=wfx scf=(conver=6) int=(grid=ultrafine)

title

0 1
C	-0.094072 0.127608 -0.000015
O	-0.642632 1.198828 0.000002
O	-0.777359 -1.043226 -0.000004
H	-1.716605 -0.805036 0.000044
C	1.394500 -0.110509 -0.000004
H	1.678811 -0.693365 0.880731
H	1.678759 -0.694113 -0.880253
H	1.916394 0.845104 -0.000395

AceticAcid.wfx


