%nprocs=4
%mem=2GB
#p pbepbe aug-cc-pvtz output=wfx scf=(conver=6) int=(grid=ultrafine)

title

0 1
C	0.000000 0.000000 1.301303
H	0.000000 0.925861 1.869497
H	0.000000 -0.925861 1.869497
C	0.000000 0.000000 0.000000
C	0.000000 0.000000 -1.301303
H	-0.925861 0.000000 -1.869497
H	0.925861 0.000000 -1.869497

allene.wfx


