%nprocs=4
%mem=2GB
#p pbepbe aug-cc-pvtz output=wfx scf=(conver=6) int=(grid=ultrafine)

title

0 1
N	0.140054 -0.535245 -0.000029
C	1.179412 0.181630 0.000029
H	2.160759 -0.295110 0.000006
H	1.164367 1.282408 -0.000132
C	-1.145606 0.134525 -0.000024
H	-1.076951 1.234231 -0.000806
H	-1.716164 -0.186583 -0.878609
H	-1.715228 -0.185159 0.879712

azapropene.wfx


