%nprocs=4
%mem=2GB
#p pbepbe aug-cc-pvtz output=wfx scf=(conver=6) int=(grid=ultrafine)

title

0 1
C	-1.263499 -0.825124 0.125178
O	0.129544 -1.131227 -0.042119
C	0.889955 0.000049 0.003597
C	-0.027318 1.209414 0.166485
C	-1.407288 0.667218 -0.215938
H	-1.832725 -1.485446 -0.532283
H	-1.546033 -1.037254 1.163696
H	0.016318 1.523257 1.216055
H	0.330904 2.041334 -0.440496
H	-2.234580 1.137564 0.318764
H	-1.582122 0.792400 -1.288673
O	2.082598 -0.028922 -0.072004

butyrolactone.wfx


