%nprocs=4
%mem=2GB
#p pbepbe aug-cc-pvtz output=wfx scf=(conver=6) int=(grid=ultrafine)

title

0 1
C	0.000000 0.000000 0.280381
N	0.000000 0.000000 1.435393
C	0.000000 0.000000 -1.176726
H	0.000000 1.025359 -1.556560
H	0.887987 -0.512679 -1.556560
H	-0.887987 -0.512679 -1.556560

cyanomethane.wfx


