%nprocs=4
%mem=2GB
#p pbepbe aug-cc-pvtz output=wfx scf=(conver=6) int=(grid=ultrafine)

title

0 1
C	-0.002393 0.668750 0.814562
C	0.002393 -0.668750 0.814562
C	0.002393 -0.786479 -0.699357
C	-0.002393 0.786479 -0.699357
H	-0.004630 1.418205 1.598068
H	0.004630 -1.418205 1.598068
H	-0.885204 -1.248987 -1.144520
H	0.891824 -1.243986 -1.144781
H	-0.891824 1.243986 -1.144781
H	0.885204 1.248987 -1.144520

cyclobutene.wfx


