%nprocs=4
%mem=2GB
#p pbepbe aug-cc-pvtz output=wfx scf=(conver=6) int=(grid=ultrafine)

title

0 1
O	0.000000 0.000000 0.587753
C	0.000000 1.168891 -0.193771
H	-0.891493 1.231094 -0.839211
H	0.000000 2.021425 0.490035
H	0.891493 1.231094 -0.839211
C	0.000000 -1.168891 -0.193771
H	0.891493 -1.231094 -0.839211
H	0.000000 -2.021425 0.490035
H	-0.891493 -1.231094 -0.839211

dimethylether.wfx


