%nprocs=4
%mem=2GB
#p pbepbe aug-cc-pvtz output=wfx scf=(conver=6) int=(grid=ultrafine)

title

0 1
C	2.445106 -0.294013 0.000646
C	1.279175 0.344615 -0.001255
H	3.368176 0.269407 -0.000701
H	2.499424 -1.375813 0.003313
H	1.219836 1.432840 -0.003913
O	0.085711 -0.298618 -0.000602
C	-1.067652 0.537852 0.001834
H	-1.056763 1.184218 0.891584
H	-1.056751 1.189388 -0.884142
C	-2.296699 -0.352394 -0.000752
H	-3.204574 0.257876 0.001265
H	-2.307434 -0.989950 -0.889043
H	-2.307184 -0.995381 0.883617

ethylvinylether.wfx


