%nprocs=4
%mem=2GB
#p pbepbe aug-cc-pvtz output=wfx scf=(conver=6) int=(grid=ultrafine)

title

0 1
C	1.423816 -0.398729 0.578105
C	1.132173 0.859488 -0.198251
C	0.356957 -0.394620 -0.503638
H	2.349316 -0.930189 0.385162
H	1.083659 -0.441528 1.606882
H	1.859527 1.195901 -0.928628
H	0.626318 1.663776 0.323279
H	0.645662 -0.915681 -1.413980
C	-1.073535 -0.564006 -0.144695
C	-1.929360 0.398440 0.188790
H	-1.425147 -1.595826 -0.155288
H	-2.955271 0.174396 0.460444
H	-1.644370 1.445718 0.200267

ethylenecyclopropane.wfx


