%nprocs=4
%mem=2GB
#p pbepbe aug-cc-pvtz output=wfx scf=(conver=6) int=(grid=ultrafine)

title

0 1
C	0.003240 1.456760 0.000000
C	0.000000 0.124332 0.000000
H	-0.918639 2.030043 0.000000
H	0.927639 2.025586 0.000000
C	1.273740 -0.680536 0.000000
H	2.159131 -0.039850 0.000000
H	1.324579 -1.336560 0.878564
H	1.324579 -1.336560 -0.878564
C	-1.276488 -0.675243 0.000000
H	-1.330221 -1.331407 -0.878336
H	-1.330221 -1.331407 0.878336
H	-2.159799 -0.031720 0.000000

isobutene.wfx


