%nprocs=4
%mem=2GB
#p pbepbe aug-cc-pvtz output=wfx scf=(conver=6) int=(grid=ultrafine)

title

0 1
C	-0.482397 0.170816 -0.001380
O	-0.417575 1.386856 -0.000305
N	0.621952 -0.634352 -0.002096
H	0.493459 -1.631663 -0.001702
C	-1.814748 -0.564464 0.000780
H	-2.401134 -0.228621 -0.858213
H	-1.721317 -1.653232 -0.034981
H	-2.368098 -0.285533 0.901572
C	1.970940 -0.105152 0.001312
H	2.522667 -0.417496 0.895349
H	2.530020 -0.427410 -0.884458
H	1.888570 0.982375 -0.004724

methylacetamide.wfx


