%nprocs=4
%mem=2GB
#p pbepbe aug-cc-pvtz output=wfx scf=(conver=6) int=(grid=ultrafine)

title

0 1
C	-0.929892 -0.091841 0.000000
O	-0.719635 -1.273276 0.000000
O	0.000000 0.871842 0.000000
H	-1.925207 0.378575 0.000000
C	1.360611 0.410346 0.000000
H	1.977294 1.308536 0.000000
H	1.560340 -0.193335 0.888666
H	1.560340 -0.193335 -0.888666

methylformate.wfx


