%nprocs=4
%mem=2GB
#p pbepbe aug-cc-pvtz output=wfx scf=(conver=6) int=(grid=ultrafine)

title

0 1
C	0.000000 2.557949 0.324254
C	0.000000 1.282743 -0.523301
H	0.000000 3.456534 -0.301228
H	-0.883520 2.602742 0.971223
H	0.883520 2.602742 0.971223
C	0.000000 0.000000 0.314945
H	-0.876681 1.282181 -1.184959
H	0.876681 1.282181 -1.184959
C	0.000000 -1.282743 -0.523301
H	0.876945 0.000000 0.978145
H	-0.876945 0.000000 0.978145
H	-0.876681 -1.282181 -1.184959
H	0.876681 -1.282181 -1.184959
C	0.000000 -2.557949 0.324254
H	-0.883520 -2.602742 0.971223
H	0.000000 -3.456534 -0.301228
H	0.883520 -2.602742 0.971223

n-pentane.wfx


