%nprocs=4
%mem=2GB
#p pbepbe aug-cc-pvtz output=wfx scf=(conver=6) int=(grid=ultrafine)

title

0 1
C	1.244490 0.666087 -0.520724
C	0.000000 1.121576 0.271429
C	0.000000 -1.121576 0.271429
C	1.244490 -0.666087 -0.520724
H	1.933359 1.338004 -1.014836
H	1.933359 -1.338004 -1.014836
C	0.000000 0.000000 1.354889
H	-0.899862 0.000000 1.976756
H	0.899862 0.000000 1.976756
C	-1.244490 0.666087 -0.520724
H	-1.933359 1.338004 -1.014836
C	-1.244490 -0.666087 -0.520724
H	-1.933359 -1.338004 -1.014836
H	0.000000 2.157760 0.608361
H	0.000000 -2.157760 0.608361

norbornadiene.wfx


