%nprocs=4
%mem=2GB
#p pbepbe aug-cc-pvtz output=wfx scf=(conver=6) int=(grid=ultrafine)

title

0 1
C	-1.981085 -0.520890 0.000000
C	-1.185001 -1.660915 0.000000
C	0.202693 -1.527254 0.000000
C	0.823205 -0.278922 0.000000
C	0.000000 0.857795 0.000000
C	-1.388666 0.739443 0.000000
H	-3.062912 -0.604878 0.000000
H	-1.637385 -2.646440 0.000000
H	0.828014 -2.415713 0.000000
H	-2.003677 1.636323 0.000000
C	2.320844 -0.123652 0.000000
H	2.663790 0.436492 0.877069
H	2.814007 -1.099130 0.000000
H	2.663790 0.436492 -0.877069
O	0.627529 2.071952 0.000000
H	-0.037797 2.767604 0.000000

o-methylphenol.wfx


