%nprocs=4
%mem=2GB
#p pbepbe aug-cc-pvtz output=wfx scf=(conver=6) int=(grid=ultrafine)

title

0 1
C	0.000000 0.000000 1.420223
C	0.000000 0.000000 0.218731
H	0.000000 0.000000 2.481707
C	0.000000 0.000000 -1.236404
H	0.000000 1.021332 -1.632336
H	0.884500 -0.510666 -1.632336
H	-0.884500 -0.510666 -1.632336

propyne.wfx


