%nprocs=4
%mem=2GB
#p pbepbe aug-cc-pvtz output=wfx scf=(conver=6) int=(grid=ultrafine)

title

0 1
N	0.000000 0.665785 -1.229271
C	0.000000 1.319641 -0.067494
C	0.000000 0.690544 1.177760
C	0.000000 -0.690544 1.177760
C	0.000000 -1.319641 -0.067494
N	0.000000 -0.665785 -1.229271
H	0.000000 1.269621 2.094584
H	0.000000 2.402659 -0.151278
H	0.000000 -1.269621 2.094584
H	0.000000 -2.402659 -0.151278

pyridazine.wfx


