%nprocs=4
%mem=2GB
#p pbepbe aug-cc-pvtz output=wfx scf=(conver=6) int=(grid=ultrafine)

title

0 1
C	0.000000 0.000000 -1.306374
N	0.000000 1.195836 -0.714545
C	0.000000 1.181926 0.620928
C	0.000000 0.000000 1.352600
C	0.000000 -1.181926 0.620928
N	0.000000 -1.195836 -0.714545
H	0.000000 2.150386 1.116500
H	0.000000 0.000000 -2.394032
H	0.000000 0.000000 2.436176
H	0.000000 -2.150386 1.116500

pyrimidine.wfx


