%nprocs=4
%mem=2GB
#p pbepbe aug-cc-pvtz output=wfx scf=(conver=6) int=(grid=ultrafine)

title

0 1
C	2.371652 -0.176167 -0.147348
C	1.175346 -0.176710 0.431489
H	2.593252 0.462339 -0.998428
H	3.179556 -0.808167 0.206066
H	0.988089 -0.834725 1.279040
C	-0.000053 0.663320 -0.002107
H	-0.312885 1.318752 0.821588
H	0.312652 1.313532 -0.829931
C	-1.175102 -0.179954 -0.430005
C	-2.371735 -0.175171 0.148223
H	-0.987848 -0.843860 -1.272953
H	-3.179565 -0.809511 -0.201171
H	-2.593899 0.469736 0.994281

skipdiene.wfx


