%nprocs=4
%mem=2GB
#p pbepbe aug-cc-pvtz output=wfx scf=(conver=6) int=(grid=ultrafine)

title

0 1
C	0.007693 1.090693 -0.000212
C	0.514217 -0.218989 -0.000153
C	-0.404778 -1.278064 0.000004
C	-1.776315 -1.044522 0.000156
C	-2.260743 0.260073 0.000125
C	-1.360380 1.326146 -0.000067
H	0.691177 1.932804 -0.000422
H	-0.031853 -2.298229 0.000028
H	-2.465660 -1.882572 0.000294
H	-3.329232 0.447584 0.000226
H	-1.729098 2.346845 -0.000129
C	1.950648 -0.526326 -0.000248
C	2.971675 0.333279 0.000334
H	2.179305 -1.591061 -0.000815
H	3.996890 -0.018789 0.000184
H	2.836369 1.409679 0.001003

styrene.wfx


