%nprocs=4
%mem=2GB
#p pbepbe aug-cc-pvtz output=wfx scf=(conver=6) int=(grid=ultrafine)

title

0 1
C	-0.007047 -1.198533 1.202672
C	-0.006253 -1.900876 0.000000
C	-0.007047 -1.198533 -1.202672
C	-0.007047 0.193801 -1.199723
C	-0.003609 0.911357 0.000000
C	-0.007047 0.193801 1.199723
H	-0.011969 -1.735241 2.146147
H	-0.009392 -2.985896 0.000000
H	-0.011969 -1.735241 -2.146147
H	-0.011835 0.733854 -2.142466
H	-0.011835 0.733854 2.142466
C	0.026950 2.420532 0.000000
H	-0.467020 2.831151 0.885713
H	1.057632 2.797074 0.000000
H	-0.467020 2.831151 -0.885713

toluene.wfx


