%nprocs=4
%mem=4GB
#p pbepbe aug-cc-pvtz output=wfx scf=(conver=6) int=(grid=ultrafine)

title

0 1
O 1.642930000000000 -0.314290000000000 0.720920000000000
H 1.350330000000000 0.428810000000000 0.157520000000000
H 2.590730000000000 -0.186590000000000 0.845220000000000
O -1.757470000000000 0.213110000000000 0.843720000000000
H -1.458370000000000 0.235510000000000 1.762220000000000
H -1.404770000000000 -0.632490000000000 0.491520000000000
O 0.039630000000000 1.288810000000000 -0.916380000000000
H -0.701970000000000 1.142110000000000 -0.285280000000000
H -0.081370000000000 2.179510000000000 -1.265480000000000
O -0.369370000000000 -1.721890000000000 -0.706380000000000
H -0.334870000000000 -1.039290000000000 -1.394080000000000
H 0.484530000000000 -1.593290000000000 -0.253480000000000

water4Py.wfx

