%nprocs=4
%mem=4GB
#p pbepbe aug-cc-pvtz output=wfx scf=(conver=6) int=(grid=ultrafine)

title

0 1
O -1.258760000000000 -1.920020000000000 -0.349060000000000
H -1.638560000000000 -1.063220000000000 -0.041260000000000
H -1.799460000000000 -2.170220000000000 -1.108060000000000
O -2.214960000000000 0.503780000000000 0.459240000000000
H -1.494660000000000 1.174080000000000 0.522240000000000
H -2.696160000000000 0.575280000000000 1.292040000000000
O -0.109360000000000 2.262680000000000 0.562540000000000
H 0.135740000000000 2.701980000000000 1.385840000000000
H 0.713740000000000 1.799380000000000 0.276240000000000
O 2.129140000000000 0.901480000000000 -0.204060000000000
H 1.920840000000000 -0.048320000000000 -0.371160000000000
H 2.577540000000000 1.197280000000000 -1.005760000000000
O 1.436940000000000 -1.691920000000000 -0.677660000000000
H 0.463440000000000 -1.816520000000000 -0.576360000000000
H 1.834540000000000 -2.405720000000000 -0.164760000000000

water5CYC.wfx

