%nprocs=4
%mem=4GB
#p pbepbe aug-cc-pvtz output=wfx scf=(conver=6) int=(grid=ultrafine)

title

0 1
O -0.100700000000000 0.037630000000000 2.153220000000000
H 0.705000000000000 -0.101570000000000 1.626520000000000
H -0.313800000000000 0.961030000000000 1.945020000000000
O 1.647200000000000 0.068230000000000 -0.227780000000000
H 1.228600000000000 -0.671770000000000 -0.735280000000000
H 2.564200000000000 0.098930000000000 -0.526180000000000
O -1.851600000000000 -0.560570000000000 -0.058180000000000
H -1.411900000000000 -0.575770000000000 0.815520000000000
H -1.746800000000000 0.375330000000000 -0.301380000000000
O -0.401900000000000 1.980030000000000 -0.090180000000000
H -0.317500000000000 2.831230000000000 -0.536580000000000
H 0.419500000000000 1.490330000000000 -0.300380000000000
O 0.127200000000000 -1.789670000000000 -1.482980000000000
H -0.694200000000000 -1.426570000000000 -1.067280000000000
H 0.146700000000000 -2.716770000000000 -1.214080000000000

water5CAC.wfx

