%nprocs=4
%mem=4GB
#p pbepbe aug-cc-pvtz output=wfx scf=(conver=6) int=(grid=ultrafine)

title

0 1
O 1.561450000000000 -1.742940000000000 -0.590770000000000
H 0.593950000000000 -1.912440000000000 -0.579570000000000
H 1.765250000000000 -1.588340000000000 -1.521870000000000
O -1.214650000000000 -1.962740000000000 -0.397670000000000
H -1.433450000000000 -1.104040000000000 0.019930000000000
H -1.525450000000000 -2.625740000000000 0.231630000000000
O -1.327450000000000 0.567960000000000 0.842430000000000
H -1.807350000000000 0.796960000000000 1.647930000000000
H -0.365050000000000 0.532660000000000 1.096130000000000
O 1.342950000000000 0.580560000000000 0.971630000000000
H 1.327350000000000 1.266860000000000 0.280530000000000
H 1.584250000000000 -0.235240000000000 0.481630000000000
O 0.126750000000000 2.295960000000000 -1.023070000000000
H 0.012250000000000 3.243160000000000 -0.874670000000000
H -0.640750000000000 1.887360000000000 -0.584270000000000

water5FRA.wfx

