%nprocs=4
%mem=4GB
#p pbepbe aug-cc-pvtz output=wfx scf=(conver=6) int=(grid=ultrafine)

title

0 1
O 0.744060000000000 -1.205290000000000 -1.337140000000000
H 1.596160000000000 -0.844690000000000 -0.996140000000000
H 0.983760000000000 -1.819990000000000 -2.041040000000000
O -0.866640000000000 1.207810000000000 -1.174840000000000
H -0.417840000000000 0.412310000000000 -1.514340000000000
H -1.719840000000000 0.861710000000000 -0.839840000000000
O 0.628860000000000 1.418810000000000 1.035660000000000
H 0.045060000000000 1.487710000000000 0.230060000000000
H 0.563060000000000 2.272610000000000 1.480260000000000
O -0.628440000000000 -1.240190000000000 1.241260000000000
H -0.184740000000000 -1.464790000000000 0.403060000000000
H -0.194340000000000 -0.405790000000000 1.493260000000000
O 2.780160000000000 0.112110000000000 -0.089040000000000
H 2.161060000000000 0.684110000000000 0.416460000000000
H 3.332160000000000 -0.311690000000000 0.579960000000000
O -2.912440000000000 -0.006290000000000 0.287560000000000
H -2.234940000000000 -0.586190000000000 0.703360000000000
H -3.675140000000000 -0.572290000000000 0.121560000000000

water6CA.wfx

