%nprocs=4
%mem=4GB
#p pbepbe aug-cc-pvtz output=wfx scf=(conver=6) int=(grid=ultrafine)

title

0 1
O -0.743470000000000 1.695280000000000 0.247630000000000
H 0.138130000000000 1.659280000000000 -0.216870000000000
H -1.011870000000000 2.621180000000000 0.199030000000000
O -0.114870000000000 -2.036920000000000 0.318430000000000
H -0.033770000000000 -1.515520000000000 1.139930000000000
H -0.922470000000000 -1.668620000000000 -0.089970000000000
O 1.614830000000000 1.445480000000000 -0.983070000000000
H 2.395530000000000 1.680680000000000 -0.465770000000000
H 1.735430000000000 0.480280000000000 -1.177570000000000
O 1.878530000000000 -1.212020000000000 -1.310170000000000
H 1.783430000000000 -1.656720000000000 -2.160870000000000
H 1.169530000000000 -1.597820000000000 -0.732970000000000
O 0.017930000000000 -0.029320000000000 2.354530000000000
H -0.480470000000000 0.021880000000000 3.178930000000000
H -0.335870000000000 0.689080000000000 1.794230000000000
O -2.162770000000000 -0.481020000000000 -0.873270000000000
H -1.817770000000000 0.368180000000000 -0.530770000000000
H -3.109970000000000 -0.463320000000000 -0.691370000000000

water6BAG.wfx

