%nprocs=4
%mem=4GB
#p pbepbe aug-cc-pvtz output=wfx scf=(conver=6) int=(grid=ultrafine)

title

0 1
O -1.381830000000000 -0.791880000000000 -0.172970000000000
H -0.454330000000000 -1.100480000000000 -0.231870000000000
H -1.811830000000000 -1.398080000000000 0.442130000000000
O 1.412570000000000 -0.776480000000000 -0.317370000000000
H 1.228070000000000 0.173720000000000 -0.173170000000000
H 1.930370000000000 -1.040280000000000 0.453630000000000
O 0.018870000000000 1.603820000000000 0.215830000000000
H -0.730030000000000 0.980020000000000 0.135230000000000
H -0.211830000000000 2.349620000000000 -0.351470000000000

water3UUD.wfx

