%nprocs=4
%mem=4GB
#p pbepbe aug-cc-pvtz output=wfx scf=(conver=6) int=(grid=ultrafine)

title

0 1
O -1.131870000000000 -1.119790000000000 -0.358330000000000
H -1.768670000000000 -1.583190000000000 0.198370000000000
H -1.238470000000000 -0.173090000000000 -0.139630000000000
O 1.560130000000000 -0.351090000000000 -0.325930000000000
H 0.778430000000000 -0.937690000000000 -0.313130000000000
H 2.231830000000000 -0.810090000000000 0.191970000000000
O -0.448270000000000 1.569210000000000 0.017670000000000
H -0.429770000000000 2.229410000000000 0.720470000000000
H 0.446630000000000 1.176310000000000 0.008570000000000

water3UUU.wfx

