%nprocs=4
%mem=4GB
#p pbepbe aug-cc-pvtz output=wfx scf=(conver=6) int=(grid=ultrafine)

title

0 1
O -2.441700000000000 -1.635530000000000 -0.541990000000000
H -3.282900000000000 -1.860830000000000 -0.129390000000000
H -1.759400000000000 -1.724730000000000 0.161610000000000
O 0.565200000000000 1.051570000000000 1.831210000000000
H 0.774700000000000 1.398270000000000 2.707310000000000
H 1.437300000000000 0.966270000000000 1.370410000000000
O -1.082400000000000 2.414370000000000 -0.030690000000000
H -1.941100000000000 2.584570000000000 0.375810000000000
H -0.533000000000000 2.046870000000000 0.690810000000000
O -0.998700000000000 0.317470000000000 -1.922490000000000
H -1.674400000000000 -0.285130000000000 -1.551590000000000
H -1.066000000000000 1.116370000000000 -1.359990000000000
O -0.195000000000000 -1.671330000000000 1.048910000000000
H 0.393700000000000 -1.648630000000000 0.271810000000000
H -0.043700000000000 -0.802530000000000 1.462710000000000
O 2.791900000000000 0.545170000000000 0.364210000000000
H 2.362800000000000 0.018270000000000 -0.348990000000000
H 3.453400000000000 -0.048130000000000 0.741510000000000
O 1.254500000000000 -0.938330000000000 -1.355890000000000
H 1.551300000000000 -1.408230000000000 -2.144790000000000
H 0.433500000000000 -0.435730000000000 -1.640490000000000

water7CA2.wfx

