%nprocs=4
%mem=4GB
#p pbepbe aug-cc-pvtz output=wfx scf=(conver=6) int=(grid=ultrafine)

title

0 1
O -1.628930000000000 -0.041380000000000 0.371370000000000
H -0.698030000000000 -0.091680000000000 0.093370000000000
H -2.066630000000000 -0.734980000000000 -0.136630000000000
O 1.214570000000000 0.031720000000000 -0.276230000000000
H 1.449270000000000 0.916720000000000 -0.585730000000000
H 1.729770000000000 -0.080380000000000 0.533870000000000

water2Cs.wfx

