%nprocs=4
%mem=4GB
#p pbepbe aug-cc-pvtz output=wfx scf=(conver=6) int=(grid=ultrafine)

title

0 1
O -0.836760000000000 1.229720000000000 -1.582730000000000
H -1.649860000000000 0.684820000000000 -1.517730000000000
H -0.134760000000000 0.572920000000000 -1.741030000000000
O 0.484640000000000 0.012420000000000 2.157170000000000
H 0.338440000000000 0.037520000000000 3.110570000000000
H 0.128140000000000 0.869020000000000 1.802270000000000
O 2.752240000000000 -0.286180000000000 0.594370000000000
H 2.038140000000000 -0.229680000000000 1.266270000000000
H 3.209340000000000 0.561820000000000 0.656770000000000
O -2.884660000000000 -0.528880000000000 -0.902630000000000
H -3.420360000000000 -1.161080000000000 -1.396030000000000
H -2.245460000000000 -1.076380000000000 -0.390330000000000
O -0.435560000000000 2.173720000000000 0.898270000000000
H -0.624660000000000 1.865320000000000 -0.028930000000000
H -0.028860000000000 3.042220000000000 0.799770000000000
O 1.179440000000000 -0.861880000000000 -1.559430000000000
H 1.870040000000000 -0.654080000000000 -0.886630000000000
H 1.637640000000000 -1.334380000000000 -2.265130000000000
O -0.797760000000000 -1.860680000000000 0.306270000000000
H -0.124660000000000 -1.707180000000000 -0.382330000000000
H -0.454660000000000 -1.349080000000000 1.061270000000000

water7CA1.wfx

