%nprocs=4
%mem=4GB
#p pbepbe aug-cc-pvtz output=wfx scf=(conver=6) int=(grid=ultrafine)

title

0 1
O 0.057790000000000 -1.979660000000000 -0.324160000000000
H -0.058810000000000 -1.770560000000000 0.623740000000000
H 0.011390000000000 -2.941560000000000 -0.386860000000000
O -0.159310000000000 -0.342260000000000 1.895640000000000
H 0.602390000000000 0.095440000000000 1.437040000000000
H 0.012190000000000 -0.253460000000000 2.840640000000000
O 1.760890000000000 0.466940000000000 0.175840000000000
H 1.649090000000000 -0.355560000000000 -0.326460000000000
H 1.336790000000000 1.141340000000000 -0.398360000000000
O 0.119090000000000 2.125340000000000 -1.352960000000000
H -0.667610000000000 1.581740000000000 -1.123260000000000
H 0.119090000000000 2.174340000000000 -2.316560000000000
O -1.789310000000000 0.294140000000000 -0.483060000000000
H -1.642910000000000 0.299740000000000 0.478040000000000
H -1.350710000000000 -0.535960000000000 -0.739260000000000

water5CAA.wfx

