%nprocs=4
%mem=4GB
#p pbepbe aug-cc-pvtz output=wfx scf=(conver=6) int=(grid=ultrafine)

title

0 1
O -1.322430000000000 0.590370000000000 0.906630000000000
H -1.455230000000000 -0.207930000000000 0.337230000000000
H -2.049130000000000 0.575770000000000 1.540730000000000
O -1.398630000000000 -1.632230000000000 -0.649770000000000
H -0.448230000000000 -1.895430000000000 -0.679670000000000
H -1.648630000000000 -1.529530000000000 -1.576570000000000
O 1.305770000000000 -2.002430000000000 -0.723370000000000
H 1.808770000000000 -2.690530000000000 -0.271470000000000
H 1.557670000000000 -1.160630000000000 -0.273770000000000
O 1.609770000000000 0.357170000000000 0.626730000000000
H 1.461470000000000 1.161270000000000 0.094230000000000
H 0.783270000000000 0.322170000000000 1.137130000000000
O 0.163470000000000 2.582370000000000 -0.451470000000000
H 0.168670000000000 3.449070000000000 -0.026970000000000
H -0.536530000000000 2.080570000000000 0.010330000000000

water5FRB.wfx

