%nprocs=4
%mem=4GB
#p pbepbe aug-cc-pvtz output=wfx scf=(conver=6) int=(grid=ultrafine)

title

0 1
O -0.262220000000000 -0.080490000000000 2.322650000000000
H -0.305320000000000 -1.028990000000000 2.092050000000000
H -1.054120000000000 0.295610000000000 1.892250000000000
O -1.172920000000000 3.076310000000000 -0.649950000000000
H -1.674820000000000 2.369010000000000 -0.191650000000000
H -1.167920000000000 3.819110000000000 -0.034050000000000
O 1.186980000000000 1.757110000000000 -1.335850000000000
H 1.569680000000000 1.521110000000000 -0.468950000000000
H 0.401680000000000 2.301310000000000 -1.114550000000000
O -2.349220000000000 0.878910000000000 0.609550000000000
H -2.173620000000000 0.096810000000000 0.011750000000000
H -3.300820000000000 0.861810000000000 0.772950000000000
O -1.699520000000000 -1.238690000000000 -0.852350000000000
H -0.991920000000000 -1.038590000000000 -1.498950000000000
H -1.281220000000000 -1.866190000000000 -0.231550000000000
O 0.578880000000000 -0.597090000000000 -2.384950000000000
H 0.706380000000000 -0.611690000000000 -3.341250000000000
H 0.794180000000000 0.334610000000000 -2.094150000000000
O 2.005880000000000 -1.824990000000000 -0.255350000000000
H 2.237380000000000 -0.998590000000000 0.211650000000000
H 1.647180000000000 -1.512490000000000 -1.109450000000000
O 2.034180000000000 0.659410000000000 1.145250000000000
H 1.185880000000000 0.466310000000000 1.627950000000000
H 2.635780000000000 1.017710000000000 1.809150000000000
O -0.150020000000000 -2.639390000000000 1.084250000000000
H -0.109420000000000 -3.559590000000000 1.371050000000000
H 0.708980000000000 -2.458290000000000 0.612550000000000

water9S4DA.wfx

