%nprocs=4
%mem=4GB
#p pbepbe aug-cc-pvtz output=wfx scf=(conver=6) int=(grid=ultrafine)

title

0 1
O -2.575920000000000 1.338390000000000 0.799450000000000
H -2.297520000000000 1.499190000000000 1.709550000000000
H -2.764720000000000 0.375890000000000 0.766850000000000
O 1.631680000000000 -1.956710000000000 0.474250000000000
H 1.453280000000000 -2.318410000000000 1.351150000000000
H 2.157680000000000 -1.134810000000000 0.640750000000000
O -2.764720000000000 -1.419510000000000 0.477750000000000
H -2.022020000000000 -1.590510000000000 -0.139350000000000
H -3.531920000000000 -1.839510000000000 0.070250000000000
O 1.779180000000000 2.317190000000000 -0.472750000000000
H 0.901880000000000 1.981790000000000 -0.791650000000000
H 1.593680000000000 3.191290000000000 -0.109850000000000
O -0.621720000000000 1.338790000000000 -1.238550000000000
H -1.309520000000000 1.448090000000000 -0.549450000000000
H -0.553720000000000 0.371190000000000 -1.332850000000000
O -0.483720000000000 -1.557310000000000 -1.124050000000000
H -0.344420000000000 -2.103710000000000 -1.907450000000000
H 0.301980000000000 -1.734210000000000 -0.542650000000000
O 3.004980000000000 0.337490000000000 0.906350000000000
H 3.903980000000000 0.369090000000000 0.556550000000000
H 2.541680000000000 1.086290000000000 0.455750000000000

water7CH2.wfx

