%nprocs=4
%mem=4GB
#p pbepbe aug-cc-pvtz output=wfx scf=(conver=6) int=(grid=ultrafine)

title

0 1
O -2.036900000000000 0.453450000000000 0.151090000000000
H -1.589900000000000 0.287550000000000 1.002090000000000
H -1.749900000000000 1.362450000000000 -0.082510000000000
O 1.738000000000000 -0.692150000000000 -1.388410000000000
H 0.812000000000000 -0.883250000000000 -1.651910000000000
H 2.237300000000000 -0.630050000000000 -2.211810000000000
O 0.606000000000000 -2.368850000000000 0.774190000000000
H -0.061200000000000 -2.292250000000000 0.064990000000000
H 1.416100000000000 -2.102550000000000 0.310490000000000
O -0.147600000000000 -0.194150000000000 2.225890000000000
H -0.188200000000000 -0.312350000000000 3.182590000000000
H 0.151800000000000 -1.060850000000000 1.856990000000000
O 1.432900000000000 1.495650000000000 0.478390000000000
H 1.635100000000000 0.802050000000000 -0.177010000000000
H 1.027800000000000 1.001750000000000 1.215090000000000
O -0.933900000000000 -1.368550000000000 -1.406410000000000
H -1.421200000000000 -0.661150000000000 -0.889510000000000
H -1.573700000000000 -1.727250000000000 -2.032910000000000
O -0.791200000000000 2.893250000000000 -0.291110000000000
H -0.660500000000000 3.480350000000000 -1.044410000000000
H 0.097300000000000 2.516950000000000 -0.085710000000000

water7PR3.wfx

