%nprocs=4
%mem=4GB
#p pbepbe aug-cc-pvtz output=wfx scf=(conver=6) int=(grid=ultrafine)

title

0 1
O -0.303940000000000 2.878990000000000 -0.210860000000000
H 0.467660000000000 2.302490000000000 -0.436160000000000
H -0.323340000000000 3.545790000000000 -0.907760000000000
O 3.440960000000000 -0.142510000000000 1.047140000000000
H 3.331760000000000 -0.179610000000000 2.005140000000000
H 2.820660000000000 -0.810110000000000 0.695840000000000
O 1.776860000000000 1.271990000000000 -0.854760000000000
H 1.518560000000000 0.336690000000000 -0.950960000000000
H 2.487760000000000 1.200890000000000 -0.193360000000000
O -0.764840000000000 -2.713710000000000 0.029140000000000
H -0.893740000000000 -3.220910000000000 0.839340000000000
H -1.539740000000000 -2.102110000000000 -0.013360000000000
O -2.896040000000000 -1.050010000000000 -0.066460000000000
H -3.482140000000000 -1.087210000000000 -0.831660000000000
H -2.773340000000000 -0.086710000000000 0.111440000000000
O 1.605160000000000 -1.580010000000000 -0.571260000000000
H 0.749660000000000 -2.016210000000000 -0.332460000000000
H 1.981960000000000 -2.135510000000000 -1.264960000000000
O -2.613440000000000 1.604190000000000 0.420540000000000
H -1.775440000000000 2.065790000000000 0.175240000000000
H -2.815040000000000 1.917890000000000 1.310140000000000

water7HM1.wfx

