%nprocs=4
%mem=4GB
#p pbepbe aug-cc-pvtz output=wfx scf=(conver=6) int=(grid=ultrafine)

title

0 1
O 2.172930000000000 1.439570000000000 -0.258330000000000
H 3.064030000000000 1.704970000000000 -0.000130000000000
H 2.266130000000000 0.503570000000000 -0.568730000000000
O 2.204030000000000 -1.188830000000000 -0.879530000000000
H 2.024130000000000 -1.516130000000000 -1.769230000000000
H 1.428130000000000 -1.481730000000000 -0.336030000000000
O 0.085830000000000 -1.678930000000000 0.737770000000000
H 0.017830000000000 -0.812930000000000 1.176570000000000
H -0.757570000000000 -1.746330000000000 0.242170000000000
O -2.271770000000000 -1.490330000000000 -0.767930000000000
H -3.114170000000000 -1.862230000000000 -0.479330000000000
H -2.372370000000000 -0.519630000000000 -0.654830000000000
O -2.230770000000000 1.231770000000000 -0.246430000000000
H -2.111670000000000 1.869570000000000 -0.961030000000000
H -1.434270000000000 1.333570000000000 0.316370000000000
O 0.040130000000000 1.181470000000000 1.371070000000000
H 0.117330000000000 1.655870000000000 2.207670000000000
H 0.872030000000000 1.376770000000000 0.869970000000000

water6BK2.wfx

