%nprocs=4
%mem=4GB
#p pbepbe aug-cc-pvtz output=wfx scf=(conver=6) int=(grid=ultrafine)

title

0 1
O -0.012830000000000 0.396190000000000 0.125620000000000
H -0.445130000000000 -0.310510000000000 -0.409580000000000
H 0.554370000000000 -0.090810000000000 0.769020000000000
O -3.832030000000000 -0.425910000000000 -0.319680000000000
H -4.392130000000000 -0.906310000000000 0.302320000000000
H -3.424430000000000 0.293590000000000 0.215420000000000
O -2.373130000000000 1.374490000000000 1.152520000000000
H -1.464730000000000 1.117690000000000 0.868220000000000
H -2.409230000000000 2.332890000000000 1.048320000000000
O 2.125170000000000 1.372690000000000 -1.319080000000000
H 1.289670000000000 1.128990000000000 -0.855780000000000
H 2.205770000000000 2.326990000000000 -1.202480000000000
O -1.471530000000000 -1.490310000000000 -1.232580000000000
H -1.482830000000000 -1.522910000000000 -2.197080000000000
H -2.383130000000000 -1.220710000000000 -0.973980000000000
O 3.735970000000000 -0.509610000000000 -0.086680000000000
H 4.633570000000000 -0.196610000000000 0.076320000000000
H 3.298970000000000 0.207890000000000 -0.598080000000000
O 1.729370000000000 -1.016410000000000 1.728620000000000
H 2.545970000000000 -0.892210000000000 1.194320000000000
H 1.572270000000000 -1.969110000000000 1.714220000000000

water7BI1.wfx

