%nprocs=4
%mem=4GB
#p pbepbe aug-cc-pvtz output=wfx scf=(conver=6) int=(grid=ultrafine)

title

0 1
O 1.843790000000000 -0.115040000000000 -0.123630000000000
H 1.342490000000000 -0.781440000000000 -0.647130000000000
H 2.761690000000000 -0.204140000000000 -0.407630000000000
O 0.055690000000000 -1.812540000000000 -1.358430000000000
H -0.732610000000000 -1.323140000000000 -1.037130000000000
H -0.031310000000000 -2.690240000000000 -0.965530000000000
O -1.805810000000000 -0.175240000000000 -0.116930000000000
H -2.728010000000000 -0.320440000000000 0.126770000000000
H -1.314910000000000 -0.066240000000000 0.735370000000000
O -0.142310000000000 0.448260000000000 1.951170000000000
H -0.084310000000000 1.337060000000000 1.550370000000000
H 0.693190000000000 0.055360000000000 1.644370000000000
O 0.055590000000000 2.251860000000000 -0.284630000000000
H -0.709110000000000 1.753660000000000 -0.613930000000000
H 0.795890000000000 1.642260000000000 -0.453130000000000

water5CAB.wfx

