%nprocs=4
%mem=4GB
#p pbepbe aug-cc-pvtz output=wfx scf=(conver=6) int=(grid=ultrafine)

title

0 1
O 0.161510000000000 2.680140000000000 0.338870000000000
H 0.154410000000000 3.147640000000000 1.182670000000000
H -0.714390000000000 2.228240000000000 0.297070000000000
O -2.377690000000000 -1.256160000000000 0.342270000000000
H -1.571490000000000 -1.760560000000000 0.080370000000000
H -2.681990000000000 -1.684160000000000 1.151470000000000
O 2.375810000000000 1.255140000000000 -0.343930000000000
H 2.680010000000000 1.681340000000000 -1.154130000000000
H 1.571210000000000 1.761640000000000 -0.081230000000000
O -0.161390000000000 -2.678260000000000 -0.340430000000000
H 0.715210000000000 -2.227860000000000 -0.297730000000000
H -0.155190000000000 -3.144160000000000 -1.185130000000000
O 2.271910000000000 -1.461760000000000 -0.282730000000000
H 2.883610000000000 -1.705360000000000 0.422270000000000
H 2.300010000000000 -0.475960000000000 -0.309830000000000
O -2.270990000000000 1.461240000000000 0.286170000000000
H -2.881190000000000 1.703340000000000 -0.420630000000000
H -2.299290000000000 0.475540000000000 0.314670000000000

water6CC.wfx

