%nprocs=4
%mem=4GB
#p pbepbe aug-cc-pvtz output=wfx scf=(conver=6) int=(grid=ultrafine)

title

0 1
O 0.057620000000000 -2.414980000000000 1.071290000000000
H 0.302220000000000 -3.347680000000000 1.083790000000000
H 0.906420000000000 -1.928180000000000 0.945190000000000
O 2.387720000000000 -1.054780000000000 0.692290000000000
H 2.306720000000000 -0.267880000000000 0.102890000000000
H 2.849220000000000 -0.725180000000000 1.472890000000000
O 2.168420000000000 1.118520000000000 -0.939210000000000
H 1.359120000000000 1.667620000000000 -0.816310000000000
H 2.221720000000000 0.958420000000000 -1.888810000000000
O -2.177680000000000 -1.446080000000000 -0.151310000000000
H -2.225680000000000 -1.831180000000000 -1.034310000000000
H -1.366680000000000 -1.833480000000000 0.253190000000000
O -0.058380000000000 2.609920000000000 -0.443610000000000
H -0.312580000000000 3.389220000000000 -0.951610000000000
H -0.903380000000000 2.132920000000000 -0.265610000000000
O -2.380580000000000 1.267220000000000 0.031490000000000
H -2.308980000000000 0.285820000000000 -0.036310000000000
H -2.825180000000000 1.419720000000000 0.874090000000000

water6CB1.wfx

