%nprocs=4
%mem=4GB
#p pbepbe aug-cc-pvtz output=wfx scf=(conver=6) int=(grid=ultrafine)

title

0 1
O -1.320190000000000 -1.380340000000000 -0.358740000000000
H -1.738390000000000 -1.594940000000000 -1.201540000000000
H -1.483390000000000 -0.416840000000000 -0.235240000000000
O 1.405210000000000 -1.341940000000000 -0.003340000000000
H 0.447610000000000 -1.480740000000000 -0.188040000000000
H 1.617110000000000 -1.979040000000000 0.689860000000000
O 1.309010000000000 1.370560000000000 0.430660000000000
H 1.467210000000000 0.402660000000000 0.338560000000000
H 1.950910000000000 1.782360000000000 -0.160740000000000
O -1.393990000000000 1.351960000000000 -0.068640000000000
H -0.431590000000000 1.494960000000000 0.085060000000000
H -1.829490000000000 1.791360000000000 0.672160000000000

water4S4.wfx

