%nprocs=4
%mem=4GB
#p pbepbe aug-cc-pvtz output=wfx scf=(conver=6) int=(grid=ultrafine)

title

0 2
h -0.299511034880593 -3.098554407928263 0.093026164689081
h 0.751147261148179 -1.636253298820733 -0.962198795686239
o -0.256692984731256 2.448729080508064 0.304713027654402
h -0.762643177833925 2.491849457737366 -0.530190662323529
p 0.041549353798338 -1.710291428469886 0.282623495435336
h -1.188285821536728 -1.256283372966682 -0.303531599630490
n 0.604130781314594 1.383093104115572 0.104833047777505
h 1.110305622721407 1.377710865824556 1.010725322083935

002.wfx

