%nprocs=4
%mem=4GB
#p pbepbe aug-cc-pvtz output=wfx scf=(conver=6) int=(grid=ultrafine)

title

0 2
h -0.011696253870876 2.206735397492656 0.229318551263525
be 0.328515918837837 0.735311320937079 0.055223980008518
h -0.018789536109441 2.055026979062016 -0.613718076563416
h 1.505292692958970 0.098506916192281 0.162782972323649
h -1.055034853242166 0.198974215356593 -0.268604190857844
h -1.047195158585127 0.353519142906311 0.574508577447894
h -0.077163817183796 -3.124471716574072 -0.058194799732758
h 0.376071007194595 -2.523602255372853 -0.081317013889562

011.wfx

