%nprocs=4
%mem=4GB
#p pbepbe aug-cc-pvtz output=wfx scf=(conver=6) int=(grid=ultrafine)

title

0 1
h 2.462985697411170 0.689229720806416 0.032844522107774
h -0.670421696638371 0.303712295819821 -1.059690539104019
h -0.640145387181924 0.553603215030618 0.923677392444172
li 0.680244802610644 -0.376380847365893 0.011911527225280
h 2.759677184449916 -0.001537462461184 -0.052421849283906
h -2.416028817451443 0.149527912775501 -0.006964141071185
h -0.945165427856009 -1.263529288531701 0.149610773544173
b -1.231146355343989 -0.054625546073563 0.001032314137727

016.wfx

