%nprocs=4
%mem=4GB
#p pbepbe aug-cc-pvtz output=wfx scf=(conver=6) int=(grid=ultrafine)

title

0 1
b -0.814281093929450 0.188412321780072 -0.150066691635814
h -2.003983180676826 0.258206308660403 -0.132662848622219
h -0.290901732754588 0.732833762754296 -1.154738716065473
h -0.267142428932177 0.799691736111669 0.803413795067148
s 0.105153333631527 -1.558751859694070 -0.203601210566215
h 0.116873472206703 -1.820424042644394 1.132790705383822
be 0.980579411693216 0.394983833378765 -0.151543278011719
h 2.173702218761589 1.005047939653245 -0.143591755549533

024.wfx

