%nprocs=4
%mem=4GB
#p pbepbe aug-cc-pvtz output=wfx scf=(conver=6) int=(grid=ultrafine)

title

0 1
h 1.005160061903974 1.282360297004622 0.541177930836355
h -3.451781437366895 0.474303028616369 -0.371426260984895
f -0.282223773516823 -0.373984069143583 1.103591564597844
h -2.796489491694121 0.310647424253493 -0.040369472138583
b 0.933401406307133 0.151658014804769 0.947438028325545
h 1.198616096810770 -0.338344330592370 -1.837436364510308
h 1.878427906595353 -0.532044244530862 1.244294666535499
h 1.514889230960605 -0.974596120412439 -1.587270092661445

031.wfx

