%nprocs=4
%mem=4GB
#p pbepbe aug-cc-pvtz output=wfx scf=(conver=6) int=(grid=ultrafine)

title

0 2
si -1.936977430117127 -0.446473642158828 -0.199131105361029
h 0.674416712009006 0.739107993215736 1.997393975813354
h -3.374587253743734 -0.150255116757610 -0.619694680791180
h 1.338059095339026 0.533434003820442 2.293729482060480
c -0.493311858509200 0.027960196487470 -1.025781934103959
mg 1.432999828620660 -0.433858102645795 -0.436524563126190
h -0.687978132482224 0.582777333993473 -1.959496622157673
h 3.047379038883593 -0.852692665954898 -0.050494552333788

037.wfx

