%nprocs=4
%mem=4GB
#p pbepbe aug-cc-pvtz output=wfx scf=(conver=6) int=(grid=ultrafine)

title

0 1
h 0.305237908696099 1.833456851855537 1.064494128644757
b 0.102013663693646 1.350439105655270 -0.029672631158212
f -1.277628985821712 0.670878761990042 -0.031976411722802
h 0.182892784701039 2.098669175013762 -0.979536531149134
h -0.315656423348016 -2.856971451237101 0.209024441928842
li -0.341602886602852 -0.792999013829437 -0.198777647756317
h 0.421121890262047 -2.685993187532027 0.175134906818123
h 0.923622048419750 0.382519758083953 -0.208690255605274

042.wfx

