%nprocs=4
%mem=4GB
#p pbepbe aug-cc-pvtz output=wfx scf=(conver=6) int=(grid=ultrafine)

title

0 1
h -1.794866970388267 0.060530286298603 -0.722326247130098
li -0.844295635026534 -0.676320378464376 0.695815831137808
h 0.600375077270695 1.608887229682020 0.110760587119148
n 0.125575818782044 0.743434363612601 0.379276494623506
h -2.359626218678942 -0.475174071962114 -0.729464029371392
h 1.825642993622248 -0.396436477213169 0.837062605031754
h 1.418129189416238 -0.465814530758066 -0.760322141517502
n 1.029065745002501 -0.399106421195489 0.189196900106771

058.wfx

