%nprocs=4
%mem=4GB
#p pbepbe aug-cc-pvtz output=wfx scf=(conver=6) int=(grid=ultrafine)

title

0 1
h 0.129551564167798 -1.696019233351350 0.983129645111828
c 0.066472447862471 -1.213045838859974 -0.007947406700963
si 1.215920416561323 0.342637812178646 -0.007728776456807
h 0.434701754520919 -1.958419071372729 -0.730983941033599
h 0.203137324084929 2.560261216577716 0.012082116592527
h -0.994697190070002 -1.009827019420237 -0.223326057898258
n -0.023983583350071 1.568685630130887 -0.006385268421072
h -1.031102733777357 1.405726504117057 -0.018840311193661

064.wfx

