%nprocs=4
%mem=4GB
#p pbepbe aug-cc-pvtz output=wfx scf=(conver=6) int=(grid=ultrafine)

title

0 1
n 0.000296860909688 -0.521190657551515 -0.844774264350201
h -0.000560919573182 -2.217711367354774 0.794998169207233
h -1.404241413937654 1.928687052778345 0.073874990614075
h 1.404027107298680 1.929914458593217 0.071921620402661
h -0.001439859723713 -1.042202915092000 -1.714797989664235
b 0.000209895667503 -1.080533848894583 0.416036781480656
al 0.000087194594948 1.194269071939036 -0.116164371870770
h 0.001621134763730 -0.191231794417725 1.318905064180576

067.wfx

