%nprocs=4
%mem=4GB
#p pbepbe aug-cc-pvtz output=wfx scf=(conver=6) int=(grid=ultrafine)

title

0 1
h -0.037496871696296 -0.395865936796853 -2.475907039628131
na 0.252303243093317 -0.374665778173035 0.026988417670613
o 0.092838894042757 1.500665438983682 -1.029881211040369
si 0.154802552819204 2.498564097119287 0.243131515465719
h -0.417930989962567 -2.037520624107295 2.072372439354274
h -0.309058480372570 -1.332794560753642 2.326262591425899
h -0.037913146930278 -1.141832094286271 -2.622137720133518
h 0.302454799006427 1.283449458014137 1.459171006885529

072.wfx

