%nprocs=4
%mem=4GB
#p pbepbe aug-cc-pvtz output=wfx scf=(conver=6) int=(grid=ultrafine)

title

0 1
h -0.107319742620061 2.900621257801194 -0.027213338090717
h 0.357599864765274 -1.901523395740817 0.977896979812539
li -0.277749084334699 0.787244051277602 -0.000293369784363
h 0.845718667463331 -0.469056165409610 -0.344233648738442
h -1.102355815831543 -0.689153494134877 0.322122063831848
b -0.043456862445930 -1.301482722449282 0.000063003462945
h 0.614903554527326 2.681750259749219 0.029278983382942
h -0.287340581523698 -2.008399791093435 -0.957620673876742

076.wfx

