%nprocs=4
%mem=4GB
#p pbepbe aug-cc-pvtz output=wfx scf=(conver=6) int=(grid=ultrafine)

title

0 1
h -1.190304331593254 0.499852078205589 -1.066914316021161
b -0.023918536136249 0.210961516209399 -1.058182711586251
h -0.095857457510465 -0.592669309637073 0.045611484460524
h 0.338175583465412 -0.383484066145469 -2.055986413751593
h 0.260656186574421 0.375795921707569 2.499874388557539
h 0.807127263707344 0.955102722039762 -0.610995013231952
h -0.264498718629340 -0.013564615890091 2.872145301862431
h 0.168620010122130 -1.051994246489686 -0.625552720289526

086.wfx

