%nprocs=4
%mem=4GB
#p pbepbe aug-cc-pvtz output=wfx scf=(conver=6) int=(grid=ultrafine)

title

0 1
h 0.056100401510580 2.010176285576555 1.018679169497585
h 0.652962426066508 -3.132354019332412 -0.031704407693369
h -1.340279268596059 1.076069350312009 -0.025512393872143
mg -1.184126541312874 -0.882103978883074 0.052547771771990
h 0.103477708698657 1.961289676355249 -1.048270983075671
c 0.534909237646141 -2.046113368544312 -0.019294713295107
b -0.098686427726935 1.385301739365113 -0.004595213491920
al 1.275642463713999 -0.372265684849129 0.058150770158646

087.wfx

