%nprocs=4
%mem=4GB
#p pbepbe aug-cc-pvtz output=wfx scf=(conver=6) int=(grid=ultrafine)

title

0 2
c 0.000156084185654 -0.161243370245015 -1.551298639871618
h -0.007488686258421 -1.237941613332812 -1.742066416464336
h 0.007445093023430 0.467121017721931 -2.444898124563328
h 0.000851383718668 -0.710268050596226 2.724594169919709
b -0.000213205872342 0.437395190130706 -0.151252057572845
o 0.001085857884749 -0.508310172824238 0.855978307634912
h -0.001768410895481 1.604596715333627 0.120225539297068
o -0.000068115786256 0.108650283812038 2.188717221620454

091.wfx

