%nprocs=4
%mem=4GB
#p pbepbe aug-cc-pvtz output=wfx scf=(conver=6) int=(grid=ultrafine)

title

0 1
p -0.835441758555682 0.390588385646719 -1.251137280042502
h -0.213503517647065 1.317706451930608 3.508886852791200
c 1.043901520382196 0.812322498536498 -1.816903433378050
mg -0.037381377527907 0.483343282132456 2.034785581297431
h -1.107752797770024 -0.797465810786613 -2.037052633347634
h 0.032277399044622 -1.658839947718593 0.142623207814013
c 0.972419780817162 0.018518074372763 -0.793735357432875
c 0.145480751256694 -0.566172934113827 0.212533062298427

095.wfx

