%nprocs=4
%mem=4GB
#p pbepbe aug-cc-pvtz output=wfx scf=(conver=6) int=(grid=ultrafine)

title

0 2
c 0.182394218338869 0.817922324988991 -0.172885044646208
h -2.326126730661209 0.040305683273455 1.011735545532252
h 2.247984083363460 0.731052568506762 -0.018710649793750
c 1.340052245361336 0.108188960134501 -0.120661554585205
h 0.113790754148010 1.919140259468834 -0.211327393923920
si -1.433291434895469 -0.141516120296979 -0.200613591270551
h -1.029374390927024 -1.640285865422018 -0.138731289412515
li 0.904571255272038 -1.834807810653552 -0.148806021900094

104.wfx

