%nprocs=4
%mem=4GB
#p pbepbe aug-cc-pvtz output=wfx scf=(conver=6) int=(grid=ultrafine)

title

0 1
h -0.390568047214402 -1.576972331519663 1.062622659890579
c -0.224373825583455 -0.541379216404285 0.743318978005128
o -0.508886957584941 -0.334412755992581 -0.729071563142882
c -1.343219555530032 0.410757111664774 0.763305243907525
c 0.792800912035793 0.129538929662796 -0.992172321714552
p 1.643314103486568 -0.011856585930346 0.477542113476720
h 0.957610931704017 0.485626769354718 -2.010891116152289
h -0.926677561313538 1.438698079164598 0.685346005729770

112.wfx

