%nprocs=4
%mem=4GB
#p pbepbe aug-cc-pvtz output=wfx scf=(conver=6) int=(grid=ultrafine)

title

0 2
h -0.055656175501619 -1.003783651210379 1.350042123808935
h -0.851079688699826 0.572882270922536 1.078196499619312
c 0.000896692012129 -0.055571527597531 0.783435899124162
h -0.841046091427572 -0.667591970673675 -1.015581189526916
h 0.914033651924586 0.473354396776996 1.089962248908781
h 0.018416184943533 1.613328143787608 -1.605058166758696
h 0.812671380315930 -0.725793855247304 -1.009142100096486
n 0.001764046432823 -0.206823806758237 -0.671855315079093

123.wfx

