%nprocs=4
%mem=4GB
#p pbepbe aug-cc-pvtz output=wfx scf=(conver=6) int=(grid=ultrafine)

title

0 2
c -1.206577623119323 -0.706018616531435 -0.479024936132483
si -0.817455539655307 -0.451360488479696 1.499094513019703
c -0.987538341656009 0.572276468583140 -0.438152337855861
p -0.931414244324563 1.803799113263004 0.761585993048096
h -1.495189630724922 -1.517965939258903 -1.138142602150808
h 0.720903034303294 -0.543612666211864 1.495055619891017
h 2.481157104503072 0.279674344306436 -0.524286240668052
h 2.236115240673774 0.563207784329306 -1.176130009151622

124.wfx

