%nprocs=4
%mem=4GB
#p pbepbe aug-cc-pvtz output=wfx scf=(conver=6) int=(grid=ultrafine)

title

0 1
h 0.648488368288284 -1.477779437227926 -0.137220788480810
h -0.626593192871930 -0.185899069416843 -3.098896998040282
h -0.400935041832117 -0.714774236374335 -2.611279669464124
h 0.744719550526374 0.827940818178890 2.200800731219537
h 0.416836597324438 -1.045435646565985 0.482418498008514
h -0.868728630325882 0.857056792603408 2.133893402142296
na 0.127113210024882 1.095660128911191 -0.534180180288155
n -0.040900861134034 0.643230649891588 1.564465004903029

138.wfx

