%nprocs=4
%mem=4GB
#p pbepbe aug-cc-pvtz output=wfx scf=(conver=6) int=(grid=ultrafine)

title

0 1
h -0.087076574063173 0.035018115051105 1.138922895533823
o 0.167247851424064 -0.104039037051766 2.075559713464223
h -0.721026065962117 1.200626762809148 -1.415138936706153
h -0.672533027182817 -0.067950615294635 2.561584521186655
b 0.115885617008569 -0.801774828572648 -1.223362642323029
h 0.095457494819518 -1.978915825709234 -1.319252057088647
c 0.119372598005804 0.577802255309561 -1.094501754519158
h 0.982672105950135 1.139233173458463 -0.723811739547718

140.wfx

