%nprocs=4
%mem=4GB
#p pbepbe aug-cc-pvtz output=wfx scf=(conver=6) int=(grid=ultrafine)

title

0 1
c 0.095549345243249 -0.575512171602891 -0.799759618403196
h -0.792901397684155 -0.238398739525000 -1.366723844829612
h 0.985241819517458 -0.204523427124087 -1.339272833177793
h -0.727921466978921 1.739638025333166 0.609869632710066
h 0.110431962686886 -1.674423140336760 -0.827609014355697
si 0.090705342054188 -0.313925476816079 2.334154084038651
c 0.080757739642269 -0.101298967737858 0.598225518903215
o 0.158136655519022 1.368443897809520 0.791116075114351

158.wfx

