%nprocs=4
%mem=4GB
#p pbepbe aug-cc-pvtz output=wfx scf=(conver=6) int=(grid=ultrafine)

title

0 1
o 0.812483505439856 0.880746999433663 0.464547808585406
c -0.616606593016314 0.925076646522128 0.267881367973062
s 0.050743877200714 -1.815676947131246 0.301270326483934
h -1.213029314428541 0.683003601788506 1.154125520426722
c 0.204481946497564 -0.128488913543359 -0.343231905907416
h -0.985392867982186 1.750433281612624 -0.349680112528511
h 0.455919475517984 -0.075290165442322 -1.406555497926582
h 1.291399970770929 -2.219804503239983 -0.088357507106626

163.wfx

