%nprocs=4
%mem=2GB
#p pbepbe aug-cc-pvtz output=wfx scf=(conver=6) int=(grid=ultrafine)

title

0 1
N   -1.578718000  -0.046611000   0.000000000
H   -2.158621000   0.136396000  -0.809565000
H   -2.158621000   0.136396000   0.809565000
H   -0.849471000   0.658193000   0.000000000
N    1.578718000   0.046611000   0.000000000
H    2.158621000  -0.136396000  -0.809565000
H    0.849471000  -0.658193000   0.000000000
H    2.158621000  -0.136396000   0.809565000

ammoniadimer10.wfx


