%nprocs=4
%mem=2GB
#p pbepbe aug-cc-pvtz output=wfx scf=(conver=6) int=(grid=ultrafine)

title

0 1
C 0.000000000 -0.667578000 0.000000000
C 0.000000000 0.667578000 0.000000000
H -0.001526000 -1.232253000 -0.923621000
H -0.001526000 -1.232253000 0.923621000
H -0.001526000 1.232253000 0.923621000
H -0.001526000 1.232253000 -0.923621000
C 5.575564200 0.000000000 0.000000000
C 4.368301200 0.000000000 0.000000000
H 3.302413200 0.000000000 0.000000000
H 6.638990200 0.000000000 0.000000000

etheneethyne12.wfx


