%nprocs=4
%mem=2GB
#p pbepbe aug-cc-pvtz output=wfx scf=(conver=6) int=(grid=ultrafine)

title

0 1
C 0.000000000 -0.667578000 0.000000000
C 0.000000000 0.667578000 0.000000000
H -0.001526000 -1.232253000 -0.923621000
H -0.001526000 -1.232253000 0.923621000
H -0.001526000 1.232253000 0.923621000
H -0.001526000 1.232253000 -0.923621000
C 4.749960900 0.000000000 0.000000000
C 3.542697900 0.000000000 0.000000000
H 2.476809900 0.000000000 0.000000000
H 5.813386900 0.000000000 0.000000000

etheneethyne09.wfx


