%nprocs=4
%mem=2GB
#p pbepbe aug-cc-pvtz output=wfx scf=(conver=6) int=(grid=ultrafine)

title

0 1
C -1.434944263 -1.236643950 0.000000000
O -0.995009531 0.001876693 0.000000000
O -0.752030700 -2.248465543 0.000000000
H -2.527660580 -1.276950582 0.000000000
H 0.000000000 0.000000000 0.000000000
C 4.023562255 -1.011821594 0.000000000
O 3.583627523 -2.250342236 0.000000000
O 3.340648692 0.000000000 0.000000000
H 5.116278572 -0.971514961 0.000000000
H 2.588617992 -2.248465543 0.000000000

formicaciddimer20.wfx


