%nprocs=4
%mem=2GB
#p pbepbe aug-cc-pvtz output=wfx scf=(conver=6) int=(grid=ultrafine)

title

0 1
O -0.956332646 -0.120638358 0.000000000
H -1.307535174 0.769703274 0.000000000
H 0.000000000 0.000000000 0.000000000
O 2.927377666 0.000000000 0.000000000
H 3.239341994 -0.496847294 -0.758561000
H 3.239341994 -0.496847294 0.758561000

waterdimer15.wfx


