%nprocs=4
%mem=2GB
#P pbepbe aug-cc-pvtz SCF=(Conver=6) Int=(grid=ultrafine) output=wfx

S66-23-hb__AcNH2-Uracil_0.90_2 

0 1
  N    4.027142025   1.114899267  -0.121658308
  H    4.517171472   0.238942087  -0.239596777
  C    4.830768037   2.257744206   0.028823388
  O    6.046330064   2.162121882   0.013638612
  C    4.058175862   3.473060689   0.191967326
  H    4.579938852   4.406253552   0.315002449
  C    2.709015150   3.411385160   0.186290569
  H    2.088611099   4.287745546   0.303967466
  N    2.023933043   2.239103652   0.031724803
  H    0.991142565   2.230042588   0.030887485
  C    2.654823008   1.034634154  -0.130535233
  O    2.057634278  -0.029281807  -0.272342724

AcNH2-Uracil_2.wfx

