%nprocs=4
%mem=2GB
#P pbepbe aug-cc-pvtz SCF=(Conver=6) Int=(grid=ultrafine) output=wfx

S66-21-hb__AcNH2-AcNH2_0.90_2 

0 1
  C    2.608502987   1.060337754   0.123708044
  O    2.024081224   0.086317318  -0.356022922
  N    1.964415423   2.145080977   0.591554598
  H    0.944310055   2.189518761   0.557253281
  H    2.482439489   2.913042177   0.971675248
  C    4.115502169   1.084622134   0.208933129
  H    4.507373233   1.984271650   0.676117139
  H    4.519058363   0.997077097  -0.796847180
  H    4.443280931   0.214047230   0.771113467

AcNH2-AcNH2_2.wfx

