%nprocs=4
%mem=2GB
#P pbepbe aug-cc-pvtz SCF=(Conver=6) Int=(grid=ultrafine) output=wfx

S66-49-ot__Benzene-Pyridine_TS_0.90_2 

0 1
  N    0.027590785   0.424148751   6.419688279
  C    0.182274605   1.362110356   5.474811399
  H    0.324045432   2.374636361   5.832713125
  C    0.168065338   1.094820591   4.108311961
  H    0.298305396   1.895846389   3.394426549
  C   -0.016272973  -0.216809094   3.683021530
  H   -0.032839426  -0.459927761   2.629673597
  C   -0.178121899  -1.201843427   4.651880619
  H   -0.324664920  -2.237054395   4.377109105
  C   -0.148919426  -0.834510326   5.994970125
  H   -0.272515560  -1.582024295   6.769071122

Benzene-Pyridine_TS_2.wfx

