%nprocs=4
%mem=2GB
#P pbepbe aug-cc-pvtz SCF=(Conver=6) Int=(grid=ultrafine) output=wfx

S66-54-ot__Benzene-Water_OH-pi_0.90_2 

0 1
  O   -2.499730195  -0.241863092   0.000000000
  H   -2.334926200  -1.186584620   0.000000000
  H   -1.612429252   0.129727233   0.000000000

Benzene-Water_OH-pi_2.wfx

