%nprocs=4
%mem=2GB
#P pbepbe aug-cc-pvtz SCF=(Conver=6) Int=(grid=ultrafine) output=wfn

S66-55-ot__Benzene-MeOH_OH-pi_0.90_2 

0 1
  O    0.068108239   0.317949209   3.429508750
  H    0.154208454   0.367822300   2.472315205
  C   -0.828042360  -0.739664864   3.712563789
  H   -0.923763054  -0.796399448   4.793499925
  H   -1.820191948  -0.567967124   3.288773585
  H   -0.461582042  -1.702705933   3.349652273

Benzene-MeOH_OH-pi_0.90_2.wfn

