%nprocs=4
%mem=2GB
#P pbepbe aug-cc-pvtz SCF=(Conver=6) Int=(grid=ultrafine) output=wfx

S66-63-ot__Benzene-AcOH_0.90_2 

0 1
  C    0.452750320  -0.321223799   3.726674844
  O    1.648242994  -0.157273053   3.803190621
  O   -0.126751352  -1.532628760   3.926113201
  H    0.607699506  -2.133737254   4.119151316
  C   -0.569133908   0.722707718   3.405993664
  H   -0.090839488   1.693654070   3.359170893
  H   -1.021934010   0.489511530   2.443285617
  H   -1.353984922   0.717171218   4.158493144

Benzene-AcOH_2.wfx

