%nprocs=4
%mem=2GB
#P pbepbe aug-cc-pvtz SCF=(Conver=6) Int=(grid=ultrafine) output=wfx

S66-56-ot__Benzene-MeNH2_NH-pi_0.90_2 

0 1
  N    0.302184569  -0.197619926   3.582684063
  H    0.436802926  -0.153579424   2.579612706
  H    0.443677140   0.747526810   3.915156340
  C   -1.073914906  -0.604003335   3.860119855
  H   -1.231791472  -0.632550342   4.936675391
  H   -1.845217093   0.036377454   3.420000857
  H   -1.228606887  -1.613571137   3.484498155

Benzene-MeNH2_NH-pi_2.wfx

