%nprocs=4
%mem=2GB
#P pbepbe aug-cc-pvtz SCF=(Conver=6) Int=(grid=ultrafine) output=wfx

S66-52-ot__Benzene-AcOH_OH-pi_0.90_2 

0 1
  C   -0.138089650   0.571131947   4.113232273
  O   -0.606279244   1.620578570   3.733971888
  O    0.265122928  -0.406431319   3.273947013
  H    0.096418107  -0.080517734   2.372541759
  C    0.071864650   0.174144861   5.544638064
  H   -0.238101501   0.983481444   6.194626951
  H   -0.504216078  -0.722479113   5.761589178
  H    1.120362071  -0.061987225   5.709656648

Benzene-AcOH_OH-pi_2.wfx

