%nprocs=4
%mem=2GB
#P pbepbe aug-cc-pvtz SCF=(Conver=6) Int=(grid=ultrafine) output=wfn

S66-50-ot__Benzene-Ethyne_CH-pi_0.90_2 

0 1
  C    0.005445464   0.066893005   3.427489300
  H    0.002436330   0.049337457   2.363413795
  C    0.009105911   0.086473859   4.639865473
  H    0.012218319   0.103646787   5.701062484

Benzene-Ethyne_CH-pi_0.90_2.wfn

