%nprocs=4
%mem=2GB
#P pbepbe aug-cc-pvtz SCF=(Conver=6) Int=(grid=ultrafine) output=wfx

S66-37-dalal__Cyclopentane-Neopentane_0.90_2 

0 1
  C    0.042206172   0.079329188   5.274017427
  C   -0.054138025  -0.072756788   6.789657906
  H    0.938408343  -0.088222992   7.242015127
  H   -0.613062793   0.755127713   7.228092818
  H   -0.561302723  -1.001422867   7.055007496
  C    0.756259415   1.386234302   4.938392547
  H    0.837778961   1.519733434   3.858710673
  H    0.212787028   2.240922737   5.343893931
  H    1.763863958   1.396884717   5.356625548
  C   -1.362805641   0.099153836   4.676697904
  H   -1.325874053   0.216343771   3.592848938
  H   -1.945105173   0.926577394   5.085043824
  H   -1.892708701  -0.828633008   4.898027197
  C    0.830105986  -1.094155716   4.696679254
  H    0.334885670  -2.041146453   4.916922402
  H    0.924949159  -1.006972952   3.613544477
  H    1.834824070  -1.131560354   5.120427710

Cyclopentane-Neopentane_2.wfx

