%nprocs=4
%mem=2GB
#P pbepbe aug-cc-pvtz SCF=(Conver=6) Int=(grid=ultrafine) output=wfx

S66-51-ot__Ethyne-Ethyne_TS_0.90_2 

0 1
  C   -0.006557524   0.090968030   3.877830118
  H   -0.003163144   0.057232978   2.814533236
  C   -0.010493947   0.129258053   5.089295501
  H   -0.013760179   0.162633934   6.150206919

Ethyne-Ethyne_TS_2.wfx

