%nprocs=4
%mem=2GB
#P pbepbe aug-cc-pvtz SCF=(Conver=6) Int=(grid=ultrafine) output=wfx

S66-59-ot__Ethyne-Water_CH-O_0.90_1 

0 1
  C   -1.006867219  -0.030568213  -0.024772854
  H    0.059003329  -0.060939737  -0.049365618
  C   -2.218743796   0.003173470   0.002599196
  H   -3.279277302   0.033524906   0.027200480

Ethyne-Water_CH-O_1.wfx

