%nprocs=4
%mem=2GB
#P pbepbe aug-cc-pvtz SCF=(Conver=6) Int=(grid=ultrafine) output=wfn

S66-51-ot__Ethyne-Ethyne_TS_1.00 

0 1
  C   -0.601729956  -0.028570118   0.384934916
  H   -1.663735430  -0.028526566   0.379014311
  C    0.610109174  -0.028663644   0.388163788
  H    1.672135444  -0.028793082   0.387967520
  C   -0.007422226   0.101064182   4.163366909
  H   -0.004027846   0.067329130   3.100070027
  C   -0.011358649   0.139354205   5.374832292
  H   -0.014624881   0.172730086   6.435743710

Ethyne-Ethyne_TS_1.00.wfn

