%nprocs=4
%mem=2GB
#P pbepbe aug-cc-pvtz SCF=(Conver=6) Int=(grid=ultrafine) output=wfx

S66-09-hb__MeNH2-MeOH_0.90_2 

0 1
  O    2.122120681  -0.062955785   0.020486043
  H    2.404146800   0.306992980  -0.819378037
  C    2.508034529   0.848628476   1.039922205
  H    2.184851480   0.418995803   1.982988749
  H    3.589089767   0.987711945   1.078962172
  H    2.029559967   1.822226321   0.924745670

MeNH2-MeOH_2.wfx

