%nprocs=4
%mem=2GB
#P pbepbe aug-cc-pvtz SCF=(Conver=6) Int=(grid=ultrafine) output=wfx

S66-66-ot__MeNH2-Pyridine_0.90_2 

0 1
  N    2.128429994  -1.212863087   0.015175723
  C    2.466866310  -0.400519022  -0.996536753
  H    1.924199091  -0.545057003  -1.921918112
  C    3.438195572   0.591614773  -0.896169749
  H    3.663048012   1.215955060  -1.749020442
  C    4.099035639   0.761156211   0.316094689
  H    4.856889584   1.523393547   0.432478818
  C    3.758902730  -0.073806314   1.375217642
  H    4.241491136   0.016655925   2.337918296
  C    2.775121165  -1.038595322   1.176034261
  H    2.489036835  -1.702342930   1.982644918

MeNH2-Pyridine_2.wfx

