%nprocs=4
%mem=2GB
#P pbepbe aug-cc-pvtz SCF=(Conver=6) Int=(grid=ultrafine) output=wfx

S66-09-hb__MeNH2-MeOH_0.90_1 

0 1
  N   -0.893451216  -0.043844322  -0.042997455
  H    0.096948261  -0.256059448  -0.071069928
  H   -1.368438791  -0.933390652   0.033837726
  C   -1.175782475   0.757907695   1.145237192
  H   -2.241626604   0.972216010   1.195024643
  H   -0.880789552   0.304246738   2.097209096
  H   -0.663005722   1.714329397   1.060809164

MeNH2-MeOH_1.wfx

