%nprocs=4
%mem=2GB
#P pbepbe aug-cc-pvtz SCF=(Conver=6) Int=(grid=ultrafine) output=wfx

S66-10-hb__MeNH2-MeNH2_0.90_2 

0 1
  N    2.206642969  -0.425792086   0.179392657
  H    2.502911639  -0.151254351  -0.748592586
  H    2.830192636  -1.173482402   0.454587520
  C    2.366872945   0.709418507   1.093067961
  H    2.096682641   0.394722727   2.098721070
  H    3.374283256   1.131195066   1.130039695
  H    1.674332562   1.495193989   0.800410715

MeNH2-MeNH2_2.wfx

