%nprocs=4
%mem=2GB
#P pbepbe aug-cc-pvtz SCF=(Conver=6) Int=(grid=ultrafine) output=wfx

S66-10-hb__MeNH2-MeNH2_0.90_1 

0 1
  N   -0.638641380   0.470916372   0.044568477
  H    0.189954359  -0.113937162  -0.005773605
  H   -1.300468945   0.081256802  -0.613668480
  C   -1.198658820   0.391398577   1.391946599
  H   -2.092737771   1.009244715   1.453167495
  H   -1.462745512  -0.615843668   1.729452190
  H   -0.480275539   0.798674912   2.101087305

MeNH2-MeNH2_1.wfx

