%nprocs=4
%mem=2GB
#P pbepbe aug-cc-pvtz SCF=(Conver=6) Int=(grid=ultrafine) output=wfx

S66-05-hb__MeOH-MeOH_0.90_1 

0 1
  O   -0.636134928  -0.023282411   0.280599321
  H    0.308097372  -0.047078748   0.076463691
  C   -1.152065407  -1.311287783   0.015259549
  H   -2.209945023  -1.296265392   0.263955863
  H   -1.056610240  -1.592670859  -1.036190606
  H   -0.674835746  -2.086272765   0.620511449

MeOH-MeOH_1.wfx

