%nprocs=4
%mem=2GB
#P pbepbe aug-cc-pvtz SCF=(Conver=6) Int=(grid=ultrafine) output=wfn

S66-61-ot__Pentane-AcOH_0.90_2 

0 1
  C   -0.452171533  -0.279720304   3.960507029
  O   -0.874785473  -1.394900551   3.763360450
  O   -1.265863891   0.779245214   4.193096509
  H   -2.166626000   0.424864676   4.152560769
  C    0.988095530   0.129945777   3.977712412
  H    1.613918595  -0.740235168   3.819557253
  H    1.164132944   0.864219411   3.194587832
  H    1.225406777   0.599246731   4.929514803

Pentane-AcOH_0.90_2.wfn

