%nprocs=4
%mem=2GB
#P pbepbe aug-cc-pvtz SCF=(Conver=6) Int=(grid=ultrafine) output=wfn

S66-64-ot__Peptide-Ethene_0.90_2 

0 1
  C   -0.077568669   0.519962694   3.565849367
  H   -0.082450233   1.262136501   4.351731938
  H   -0.726101422   0.687731333   2.717165803
  C    0.690941635  -0.566999235   3.635658980
  H    1.336246600  -0.738824876   4.485786844
  H    0.685829648  -1.302199361   2.843349701

Peptide-Ethene_0.90_2.wfn

