%nprocs=4
%mem=2GB
#P pbepbe aug-cc-pvtz SCF=(Conver=6) Int=(grid=ultrafine) output=wfx

S66-15-hb__Peptide-Peptide_0.90_2 

0 1
  C    1.868051797  -2.341080899   0.672805355
  H    2.426276601  -3.251084135   0.466897352
  H    0.939359939  -2.347610349   0.108479938
  H    1.608832868  -2.317634200   1.729746355
  C    2.635687739  -1.086668860   0.336568616
  O    2.090501096   0.014767945   0.279596225
  N    3.962445952  -1.255482627   0.122820646
  H    4.338767252  -2.182728323   0.199577972
  C    4.849684136  -0.149016654  -0.166127889
  H    4.235491756   0.741793122  -0.245951602
  H    5.577098686  -0.009550922   0.631275418
  H    5.374674429  -0.308998382  -1.105270225

Peptide-Peptide_2.wfx

