%nprocs=4
%mem=2GB
#P pbepbe aug-cc-pvtz SCF=(Conver=6) Int=(grid=ultrafine) output=wfx

S66-14-hb__Peptide-MeNH2_0.90_2 

0 1
  N    2.049331840   0.244511059   0.275161800
  H    2.452998165   0.784430587   1.030361890
  H    2.467335713   0.611892308  -0.570484121
  C    2.421634679  -1.166671755   0.428914549
  H    1.995347279  -1.737704340  -0.392460901
  H    3.497033321  -1.353361204   0.454697946
  H    1.987162106  -1.551078767   1.348750550

Peptide-MeNH2_2.wfx

