%nprocs=4
%mem=2GB
#P pbepbe aug-cc-pvtz SCF=(Conver=6) Int=(grid=ultrafine) output=wfx

S66-48-ot__Pyridine-Pyridine_TS_0.90_2 

0 1
  N    0.538781026   0.003059145   6.480864659
  C    1.409449043  -0.002553646   5.461451626
  H    2.457305617  -0.001305121   5.735754418
  C    1.036063307  -0.009621407   4.119623554
  H    1.783523970  -0.013785426   3.338523906
  C   -0.319985250  -0.011035471   3.807208088
  H   -0.649713929  -0.016490948   2.776926640
  C   -1.238088514  -0.005320385   4.852377702
  H   -2.302538550  -0.006169775   4.663641916
  C   -0.762484710   0.001597270   6.161336552
  H   -1.454668373   0.006180399   6.994527757

Pyridine-Pyridine_TS_2.wfx

