%nprocs=4
%mem=2GB
#P pbepbe aug-cc-pvtz SCF=(Conver=6) Int=(grid=ultrafine) output=wfn

S66-58-ot__Pyridine-Pyridine_CH-N_0.90_2 

0 1
  N    2.204687359  -0.958753648   0.042959208
  C    3.406466175  -1.551929884   0.045039048
  H    3.401242323  -2.634892337   0.066928214
  C    4.612402412  -0.856971326   0.021037668
  H    5.548840738  -1.396506504   0.024131676
  C    4.580084804   0.533333131  -0.006709042
  H    5.495459741   1.108584182  -0.025890552
  C    3.340404473   1.163619262  -0.009186148
  H    3.260631742   2.241177840  -0.030274712
  C    2.186490902   0.383609641   0.016007520
  H    1.206580502   0.847272223   0.014344675

Pyridine-Pyridine_CH-N_0.90_2.wfn

