%nprocs=4
%mem=2GB
#P pbepbe aug-cc-pvtz SCF=(Conver=6) Int=(grid=ultrafine) output=wfx

S66-65-ot__Pyridine-Ethyne_0.90_2 

0 1
  C    0.443388226  -0.005398927   5.334814203
  H    0.558798270  -0.004824735   6.389828025
  C    0.311318463  -0.005948662   4.128566903
  H    0.193170347  -0.005686234   3.064061429

Pyridine-Ethyne_2.wfx

