%nprocs=4
%mem=2GB
#P pbepbe aug-cc-pvtz SCF=(Conver=6) Int=(grid=ultrafine) output=wfx

S66-33-dpipi__Pyridine-Ethene_0.90_2 

0 1
  C    0.016268721   0.666423181   3.116599871
  H    0.926742724   1.225908900   2.957485028
  H   -0.893278777   1.228827408   3.273560375
  C    0.016601405  -0.666264119   3.116732110
  H    0.927337096  -1.225346603   2.957721677
  H   -0.892686689  -1.229088890   3.273821261

Pyridine-Ethene_2.wfx

