%nprocs=4
%mem=2GB
#P pbepbe aug-cc-pvtz SCF=(Conver=6) Int=(grid=ultrafine) output=wfx

S66-31-dpipi__Uracil-Ethene_0.90_2 

0 1
  C    0.718392214   0.015361979   3.114011530
  H    1.235509951  -0.855625917   2.736784935
  H    1.324003219   0.802356023   3.541325864
  C   -0.610384287   0.115952427   3.064764601
  H   -1.222387174  -0.671527163   2.647863883
  H   -1.122209278   0.987022018   3.448764366

Uracil-Ethene_2.wfx

