%nprocs=4
%mem=2GB
#P pbepbe aug-cc-pvtz SCF=(Conver=6) Int=(grid=ultrafine) output=wfn

S66-32-dpipi__Uracil-Ethyne_0.90_2 

0 1
  C    0.692190945  -0.174483971   2.983522745
  H    1.688009215  -0.528469824   2.869304015
  C   -0.452413140   0.211973715   3.089714587
  H   -1.457295695   0.540674057   3.190078753

Uracil-Ethyne_0.90_2.wfn

