%nprocs=4
%mem=2GB
#P pbepbe aug-cc-pvtz SCF=(Conver=6) Int=(grid=ultrafine) output=wfx

S66-43-dpial__Uracil-Neopentane_0.90_2 

0 1
  C   -0.532671616  -0.024325058   4.476972993
  C   -1.849417801   0.716963742   4.691845897
  H   -2.556489204   0.098757558   5.246708238
  H   -1.689918241   1.637148290   5.256030914
  H   -2.307127576   0.978460762   3.736692242
  C    0.082764999  -0.377762980   5.828250435
  H    1.025927172  -0.910136290   5.697468604
  H    0.279785951   0.521978760   6.413052578
  H   -0.588529022  -1.015499987   6.404987183
  C    0.432452656   0.869152764   3.701183900
  H    1.381023137   0.356558057   3.530829904
  H    0.637742855   1.787289213   4.254610273
  H    0.010057268   1.147639373   2.733719461
  C   -0.793988810  -1.304359451   3.686608099
  H   -1.257727211  -1.082525747   2.723983461
  H    0.138587490  -1.842758371   3.506971419
  H   -1.464496618  -1.966173414   4.236793021

Uracil-Neopentane_2.wfx

