%nprocs=4
%mem=2GB
#P pbepbe aug-cc-pvtz SCF=(Conver=6) Int=(grid=ultrafine) output=wfn

S66-01-hb__Water-Water_1.05 

0 1
  O   -0.702196054  -0.056060256   0.009942262
  H   -1.022193224   0.846775782  -0.011488714
  H    0.257521062   0.042121496   0.005218999
  O    2.369548767   0.025550247   0.000272246
  H    2.746170382  -0.412829819   0.766396628
  H    2.741813084  -0.450662728  -0.745130256

Water-Water_1.05.wfn

