%nprocs=4
%mem=4GB
#p pbepbe aug-cc-pvtz output=wfx scf=(conver=6) int=(grid=ultrafine)

title

0 1
c 0.619372964092559 -0.471982420444119 -1.950860373007306
c -0.619372964092559 0.471982420444119 -1.950860373007306
c -1.476399335583219 0.363113509864164 -0.719579854115188
c 1.476399335583219 -0.363113509864164 -0.719579854115188
c -1.197139620901264 1.116869602992309 0.428841432285538
c -1.966420127370559 0.945882786617387 1.581781798803408
c -3.007627647603867 0.010998504062206 1.601970250342670
c -3.284856646209917 -0.746886541000574 0.459141958828553
c -2.524896483084048 -0.565984497939551 -0.699897148046382
h -0.380599851378885 1.832884177763807 0.411349718233939
h -1.747958237455412 1.537940292002965 2.468362260709972
h -3.603229720395306 -0.123242747434902 2.502947112607512
h -4.096572200443910 -1.471670647087355 0.467062002670326
h -2.737107568949313 -1.153284853508895 -1.591351099747495
c 1.197139620901264 -1.116869602992309 0.428841432285538
c 1.966420127370559 -0.945882786617387 1.581781798803408
c 3.007627647603867 -0.010998504062206 1.601970250342670
c 3.284856646209917 0.746886541000574 0.459141958828553
c 2.524896483084048 0.565984497939551 -0.699897148046382
h 0.380599851378885 -1.832884177763807 0.411349718233939
h 1.747958237455412 -1.537940292002965 2.468362260709972
h 3.603229720395306 0.123242747434902 2.502947112607512
h 4.096572200443910 1.471670647087355 0.467062002670326
h 2.737107568949313 1.153284853508895 -1.591351099747495
h -1.206026204766835 0.236045714927489 -2.848984205511218
f -0.114991667751488 1.781228417420836 -2.110783854054297
f 0.114991667751488 -1.781228417420836 -2.110783854054297
h 1.206026204766835 -0.236045714927489 -2.848984205511218

i20p.wfx

