%nprocs=4
%mem=4GB
#p pbepbe aug-cc-pvtz output=wfx scf=(conver=6) int=(grid=ultrafine)

title

0 1
c 1.401539841181074 -0.692892469693188 0.141904296652095
c 1.000760278574437 -2.071899882621492 0.274583099440807
c 1.646564089010842 -3.303452191609636 0.052146182375414
c 0.937984180536844 -4.483657052709942 0.263955508203625
c -0.410656019530906 -4.463438301005770 0.686142933446396
c -1.084572942400267 -3.260540573731657 0.891568870532515
c -0.361900872349526 -2.084268205152540 0.677225082394283
h 2.680353226420475 -3.327607696617023 -0.283144827435479
h 1.427800668129342 -5.440935520187282 0.097312337561090
h -0.935269309575312 -5.403324535905361 0.845131266047807
h -2.125874911293439 -3.224974914646284 1.200365547634341
n -0.774648153529497 -0.767292254295038 0.760065677315930
c 0.291228788326935 0.089843186266549 0.437901640590376
c 0.175640214351317 1.547996950015743 0.556508972744814
c 2.727384859965354 -0.215784824239448 -0.273349508217210
c 3.893694087183050 -0.832329888523330 0.220382684130903
c 5.159281861588908 -0.387566756466140 -0.170333432766164
c 5.286288147697952 0.683585207083111 -1.061181590702949
c 4.134382290738044 1.303236512050952 -1.561295430841049
c 2.870089665595249 0.855793338620346 -1.176603576302192
h 3.799654872066764 -1.650816749383394 0.930097398408774
h 6.048187955677465 -0.874617966932740 0.227169640376973
h 6.271983523066775 1.030488663105610 -1.365270216652239
h 4.221880681459322 2.132508569105446 -2.261208538542756
h 1.978467108157165 1.332578033609873 -1.575563321550582
c -0.896419730964239 2.260856718694975 -0.013973721860462
c -0.971393508710744 3.650203208141253 0.115557005785020
c 0.023099269840812 4.350250898454121 0.806272247294943
c 1.096627184139019 3.650413966456461 1.371215270361188
c 1.170896188472491 2.262889436014894 1.252200113112871
h -1.657902047249622 1.731235575984972 -0.578588805160433
h -1.804875856034145 4.185813872730127 -0.335017164254436
h -0.035889518514101 5.432644310280901 0.902782779047306
h 1.875003372302826 4.186843664027508 1.910528913623042
h 2.002032589362284 1.717174178814376 1.690649577248629
n -2.032697652930115 -0.404188046923819 1.206713615605969
c -3.052464306368885 -0.198213400142669 0.250707754924740
c -4.205213760593438 0.504413911736597 0.641107079588487
c -5.251261028584853 0.685471568934321 -0.263218047495383
c -5.165722634730169 0.171290328466849 -1.563331598359505
c -4.016173403083989 -0.527219067717121 -1.945122476990097
c -2.959662562844569 -0.716570497896790 -1.049693196301969
h -4.272285079353716 0.909833679936735 1.650000432818023
h -6.136686364124648 1.235663266104384 0.049711865917719
h -5.982952275924371 0.314366089363786 -2.266376052255771
h -3.933692735288952 -0.931953646209376 -2.952070774905132
h -2.068750886947588 -1.259410055957337 -1.351784418984312
h -1.983859382917677 0.297559364567531 1.937218906394133

i6e.wfx

