%nprocs=4
%mem=4GB
#p pbepbe aug-cc-pvtz output=wfx scf=(conver=6) int=(grid=ultrafine)

title

0 1
c -1.883897073214173 3.246351812664175 0.029287294865186
c -0.517253223521787 3.063580536508351 -0.017294958634029
c 0.183536496405608 1.823157990183681 0.119043216233510
c 1.526541617613905 1.751825735849298 -0.102333341027053
n 2.391069938152681 0.651574553462161 0.018429255446290
c -2.867327109832416 2.221188518411444 0.038975262423313
c -4.224942480668711 2.464277114746726 0.078363395913508
c -5.336691406593887 1.570934134321429 -0.002852014202492
c -5.409194710708531 0.188404978224771 -0.063163182085091
c -4.340487679755194 -0.724462018692191 0.069491921974096
c -4.381296364941015 -2.086649021664311 -0.135938829627899
c -3.227536091567169 -2.930775502972019 -0.087794830599361
c -1.935472009644936 -2.455369167259967 -0.108323754776829
c -0.742593732649111 -3.191257163281327 0.097761241315071
c 0.515868217506374 -2.624260930892456 0.152344653075463
c 0.819013285663965 -1.255157996236990 -0.129000451474464
c 2.013587532750973 -0.692270156356861 0.194140461538197
c 3.784263900496785 0.979264865638197 -0.027869596327791
o 4.212013357716878 2.112922429318771 -0.071468511774586
o 4.545251584541250 -0.135098535417920 -0.033330979712885
c 5.990198310461407 0.092434154513844 -0.042955065430046
c 6.654500864561567 -1.271743132212271 -0.020144345202937
h -2.249615804170984 4.274965200616444 0.008196868877898
h 0.099068011505945 3.952073476675197 -0.166406406078208
h -0.380360636351652 0.956613599143705 0.445790033369798
h 2.055677678423210 2.654111779999481 -0.389986733199147
h -2.500145633370928 1.205274245575722 -0.065221255736510
h -4.506877152748616 3.518867838756388 0.140291957411722
h -6.298632564597010 2.081346416346620 -0.068372398760355
h -6.399193724954002 -0.236873110509171 -0.243547759181574
h -3.393378695082419 -0.313826304140727 0.398281080565115
h -5.343674226103273 -2.553445853149169 -0.356073848337271
h -3.388026498582932 -4.009305578260806 -0.030891149406787
h -1.814456549489378 -1.383839510836828 -0.258199401718533
h -0.831910734992976 -4.259204908977791 0.302846093237354
h 1.345865620992277 -3.256578349892583 0.472411231970825
h 0.067871990800411 -0.659638641221058 -0.633999417258094
h 2.785932074113006 -1.303046773359509 0.646667353987924
h 6.251202035991311 0.698783045639392 0.832823843851028
h 6.239662684786837 0.663321788227234 -0.945420607457062
h 6.386763040076316 -1.824178164860166 0.888615717284627
h 7.743940132057777 -1.140233912248598 -0.038143153813438
h 6.361135728922656 -1.864059482380327 -0.895028891518400

i8e.wfx

