%nprocs=4
%mem=4GB
#p pbepbe aug-cc-pvtz output=wfx scf=(conver=6) int=(grid=ultrafine)

title

0 1
c 0.000000000000000 0.000000000000000 0.599563954947203
c 0.000000000000000 0.000000000000000 -0.599563954947203
h 0.000000000000000 0.000000000000000 1.663939874821154
h 0.000000000000000 0.000000000000000 -1.663939874821154

c2h2.wfx

