%nprocs=4
%mem=4GB
#p pbepbe aug-cc-pvtz output=wfx scf=(conver=6) int=(grid=ultrafine)

title

0 1
c 0.000000000000000 0.662406949989378 0.000000000000000
c 0.000000000000000 -0.662406949989378 0.000000000000000
h 0.921993930591125 1.230580907218012 0.000000000000000
h 0.921993930591125 -1.230580907218012 0.000000000000000
h -0.921993930591125 1.230580907218012 0.000000000000000
h -0.921993930591125 -1.230580907218012 0.000000000000000

c2h4.wfx

