%nprocs=4
%mem=4GB
#p pbepbe aug-cc-pvtz output=wfx scf=(conver=6) int=(grid=ultrafine)

title

1 1
p 0.000000000000000 0.000000000000000 0.000000000000000
h 0.807258555411905 -0.807258555411905 0.807258555411905
h -0.807258555411905 0.807258555411905 0.807258555411905
h -0.807258555411905 -0.807258555411905 -0.807258555411905
h 0.807258555411905 0.807258555411905 -0.807258555411905

ph3p.wfx

