%nprocs=4
%mem=4GB
#p pbepbe aug-cc-pvtz output=wfx scf=(conver=6) int=(grid=ultrafine)

title

0 1
si 0.000000000000000 0.000000000000000 0.000000000000000
h 0.854920345922869 -0.854920345922869 0.854920345922869
h -0.854920345922869 0.854920345922869 0.854920345922869
h -0.854920345922869 -0.854920345922869 -0.854920345922869
h 0.854920345922869 0.854920345922869 -0.854920345922869

sih4.wfx

