%nprocs=4
%mem=4GB
#p pbepbe aug-cc-pvtz output=wfx scf=(conver=6) int=(grid=ultrafine)

title

0 1
c 0.000000000000000 1.249285604386021 -1.277062600464578
c 0.000000000000000 -1.249285604386021 -1.277062600464578
c 1.266988583896722 0.000000000000000 0.502066385279318
c -1.266988583896722 0.000000000000000 0.502066385279318
c 0.000000000000000 0.000000000000000 -2.160247122630572
c 1.247280875906443 1.244006092386759 -0.391990329570500
c -1.247280875906443 1.244006092386759 -0.391990329570500
c -1.247280875906443 -1.244006092386759 -0.391990329570500
c 1.247280875906443 -1.244006092386759 -0.391990329570500
c 0.000000000000000 0.000000000000000 1.362287944693416
h 0.881226856147104 0.000000000000000 -2.807742679840854
h -0.881226856147104 0.000000000000000 -2.807742679840854
h 1.268044061519670 2.141750459425304 0.234583631864600
h -1.268044061519670 2.141750459425304 0.234583631864600
h -1.268044061519670 -2.141750459425304 0.234583631864600
h 1.268044061519670 -2.141750459425304 0.234583631864600
h 2.149302990203691 1.259834606234760 -1.012366660186284
h -2.149302990203691 1.259834606234760 -1.012366660186284
h -2.149302990203691 -1.259834606234760 -1.012366660186284
h 2.149302990203691 -1.259834606234760 -1.012366660186284
h 0.000000000000000 -0.882076657993363 2.013394976516714
h 0.000000000000000 0.882076657993363 2.013394976516714
h 0.000000000000000 2.143556802630839 -1.904861888721784
h 0.000000000000000 -2.143556802630839 -1.904861888721784
c 2.504984613275612 0.000000000000000 1.384361963563628
c -2.504984613275612 0.000000000000000 1.384361963563628
h 2.524472312009425 0.883768916797218 2.024874750980574
h -2.524472312009425 0.883768916797218 2.024874750980574
h -2.524472312009425 -0.883768916797218 2.024874750980574
h 2.524472312009425 -0.883768916797218 2.024874750980574
h 3.413133730663212 0.000000000000000 0.778620646459367
h -3.413133730663212 0.000000000000000 0.778620646459367

c2.wfx

