%nprocs=4
%mem=4GB
#p pbepbe aug-cc-pvtz output=wfx scf=(conver=6) int=(grid=ultrafine)

title

0 1
c 0.000000000000000 0.000000000000000 -0.761689378489891
c 0.000000000000000 0.000000000000000 0.761689378489891
h -0.878600255162944 0.507260093828400 -1.155764970982432
h 0.000000000000000 -1.014520187656804 -1.155764970982432
h 0.878600255162944 0.507260093828400 -1.155764970982432
h -0.878600255162944 -0.507260093828400 1.155764970982432
h 0.000000000000000 1.014520187656804 1.155764970982432
h 0.878600255162944 -0.507260093828400 1.155764970982432

c2h6.wfx

