%nprocs=4
%mem=4GB
#p pbepbe aug-cc-pvtz output=wfx scf=(conver=6) int=(grid=ultrafine)

title

0 1
c 0.000000000000000 -1.248414537047472 -1.461842092789226
c 0.000000000000000 1.248414537047472 -1.461842092789226
c -1.244437602314530 0.000000000000000 0.322618239964004
c 1.244437602314530 0.000000000000000 0.322618239964004
c 0.000000000000000 0.000000000000000 -2.346300145215468
c -1.254009137922915 -1.239002560066638 -0.582116414299621
c -1.254009137922915 1.239002560066638 -0.582116414299621
c 1.254009137922915 1.239002560066638 -0.582116414299621
c 1.254009137922915 -1.239002560066638 -0.582116414299621
c 0.000000000000000 0.000000000000000 1.237813023336875
h -0.881756324846355 0.000000000000000 -2.993303581142577
h 0.881756324846355 0.000000000000000 -2.993303581142577
h -1.314329168321414 -2.155663769250062 0.005906171339519
h -1.314329168321414 2.155663769250062 0.005906171339519
h 1.314329168321414 2.155663769250062 0.005906171339519
h 1.314329168321414 -2.155663769250062 0.005906171339519
h -2.144874843392236 -1.212797860532562 -1.216375756997515
h -2.144874843392236 1.212797860532562 -1.216375756997515
h 2.144874843392236 1.212797860532562 -1.216375756997515
h 2.144874843392236 -1.212797860532562 -1.216375756997515
c 0.000000000000000 1.220174352785063 2.162326059436231
c 0.000000000000000 -1.220174352785063 2.162326059436231
h 0.000000000000000 -2.143016373668294 -2.089220188688922
h 0.000000000000000 2.143016373668294 -2.089220188688922
h -2.139384105150491 0.000000000000000 0.954291170344756
h 2.139384105150491 0.000000000000000 0.954291170344756
h 0.882019787546053 1.198817199101740 2.805606739457183
h 0.882019787546053 -1.198817199101740 2.805606739457183
h -0.882019787546053 -1.198817199101740 2.805606739457183
h -0.882019787546053 1.198817199101740 2.805606739457183
h 0.000000000000000 2.168692117021077 1.633332474815875
h 0.000000000000000 -2.168692117021077 1.633332474815875

c3.wfx

