%nprocs=4
%mem=4GB
#p pbepbe aug-cc-pvtz output=wfx scf=(conver=6) int=(grid=ultrafine)

title

0 1
c 0.000000000000000 0.000000000000000 2.310071174484034
c -1.247168807478217 0.720053246722457 1.794580936753052
h -2.147341233260853 0.222049299382432 2.166584783371927
c -1.247215188977718 0.720080025093676 0.266384418999112
h -1.265970950788149 1.748627408906488 2.166584783371927
c 0.000000000000000 -1.440106493444908 1.794580936753052
h 0.000000000000000 0.000000000000000 3.402537501607458
c 1.247168807478217 0.720053246722457 1.794580936753052
c -1.247215188977718 -0.720080025093676 -0.266384418999112
c 0.000000000000000 1.440160050187347 -0.266384418999112
h -2.140219223217367 1.235656144649356 -0.103949208159803
h -2.140219223217367 -1.235656144649356 0.103949208159803
c 0.000000000000000 0.000000000000000 -2.310071174484034
c -1.247168807478217 -0.720053246722457 -1.794580936753052
c 0.000000000000000 1.440106493444908 -1.794580936753052
h -0.881370282472704 1.970676708288920 -2.166584783371927
h 0.000000000000000 2.471312289298717 0.103949208159803
h -0.881370282472704 -1.970676708288920 2.166584783371927
h 0.881370282472704 -1.970676708288920 2.166584783371927
c 0.000000000000000 -1.440160050187347 0.266384418999112
h 2.147341233260853 0.222049299382432 2.166584783371927
h 1.265970950788149 1.748627408906488 2.166584783371927
c 1.247215188977718 0.720080025093676 0.266384418999112
h -1.265970950788149 -1.748627408906488 -2.166584783371927
h 2.147341233260853 -0.222049299382432 -2.166584783371927
h 0.000000000000000 -2.471312289298717 -0.103949208159803
h 2.140219223217367 1.235656144649356 -0.103949208159803
c 1.247215188977718 -0.720080025093676 -0.266384418999112
h -2.147341233260853 -0.222049299382432 -2.166584783371927
c 1.247168807478217 -0.720053246722457 -1.794580936753052
h 0.881370282472704 1.970676708288920 -2.166584783371927
h 0.000000000000000 0.000000000000000 -3.402537501607458
h 2.140219223217367 -1.235656144649356 0.103949208159803
h 1.265970950788149 -1.748627408906488 -2.166584783371927

c5.wfx

