%nprocs=4
%mem=4GB
#p pbepbe aug-cc-pvtz output=wfx scf=(conver=6) int=(grid=ultrafine)

title

0 1
c 0.000000000000000 0.000000000000000 0.000000000000000
h 0.626635128294132 -0.626635128294132 0.626635128294132
h -0.626635128294132 0.626635128294132 0.626635128294132
h -0.626635128294132 -0.626635128294132 -0.626635128294132
h 0.626635128294132 0.626635128294132 -0.626635128294132

ch4.wfx

