%nprocs=4
%mem=4GB
#p pbepbe aug-cc-pvtz output=wfx scf=(conver=6) int=(grid=ultrafine)

title

0 1
c 1.145375605916030 -0.852495683758599 -1.337143972205734
c 0.000000000000000 0.000000000000000 -0.782472626250817
c 0.000000000000000 0.000000000000000 0.782472626250817
c 1.145375605916030 0.852495683758599 1.337143972205734
c 0.165595115793515 1.418172213477575 -1.337143972205734
c -1.310970721709545 -0.565676529718975 -1.337143972205734
c 0.165595115793515 -1.418172213477575 1.337143972205734
c -1.310970721709545 0.565676529718975 1.337143972205734
h 2.110121161577415 -0.561400631866337 -0.921942299352999
h 0.992865288721930 -1.912331490948349 -1.137946203192218
h 1.201096284661569 -0.724944934010177 -2.419327704774407
h 2.110121161577415 0.561400631866337 0.921942299352999
h 0.992865288721930 1.912331490948349 1.137946203192218
h 1.201096284661569 0.724944934010177 2.419327704774407
h 1.159695007257276 1.816012308043132 -1.137946203192218
h 0.027272586866866 1.402652361913113 -2.419327704774407
h -0.568873371891822 2.108118846922337 -0.921942299352999
h -1.541247789685593 -1.546718215056000 -0.921942299352999
h -2.152560295979205 0.096319182905211 -1.137946203192218
h -1.228368871528434 -0.677707427902935 -2.419327704774407
h 1.159695007257276 -1.816012308043132 1.137946203192218
h 0.027272586866866 -1.402652361913113 2.419327704774407
h -0.568873371891822 -2.108118846922337 0.921942299352999
h -1.541247789685593 1.546718215056000 0.921942299352999
h -2.152560295979205 -0.096319182905211 1.137946203192218
h -1.228368871528434 0.677707427902935 2.419327704774407

h15.wfx

