%nprocs=4
%mem=4GB
#p pbepbe aug-cc-pvtz output=wfx scf=(conver=6) int=(grid=ultrafine)

title

0 1
c -1.584704924264082 1.458947615785832 0.000000000000000
c -1.203641858454214 -0.017066448059245 0.000000000000000
c 0.301406534960835 -0.321345761547553 0.000000000000000
c 0.970301872133405 0.253134609110784 1.247061138661048
c 0.476256402835692 -1.838659296015267 0.000000000000000
c 0.970301872133405 0.253134609110784 -1.247061138661048
h -1.203122553987390 1.972612671417923 -0.880771008446763
h -2.667963455759502 1.571782826498904 0.000000000000000
h -1.203122553987390 1.972612671417923 0.880771008446763
h -1.646094684120263 -0.501357661909110 -0.875361652505154
h -1.646094684120263 -0.501357661909110 0.875361652505154
h 0.488781621669602 -0.118945200606633 2.153061337438861
h 0.927839122865898 1.341696291536961 1.261531032291643
h 2.021277313305873 -0.037481886108100 1.280961435840612
h 0.013607755708888 -2.282355203323509 0.882911981187259
h 1.533466405529209 -2.108266176899303 0.000000000000000
h 0.013607755708888 -2.282355203323509 -0.882911981187259
h 0.927839122865898 1.341696291536961 -1.261531032291643
h 0.488781621669602 -0.118945200606633 -2.153061337438861
h 2.021277313305873 -0.037481886108100 -1.280961435840612

h3.wfx

