%nprocs=4
%mem=4GB
#p pbepbe aug-cc-pvtz output=wfx scf=(conver=6) int=(grid=ultrafine)

title

0 1
c -2.902198184379305 0.536641272269075 0.197362095475588
c -1.618346914493524 -0.270669798889659 0.353816225726335
c -0.412648131375352 0.569355180087738 -0.064924872403818
c 0.939939593005485 -0.088335218501057 0.176925236586164
c 2.110721069086901 0.834164925712933 -0.137751629362276
c 3.458743046370641 0.165566496885601 0.097033067539542
c -1.714603853491455 -1.566766785534235 -0.443914946728069
h -3.047815711631521 0.812801920871049 -0.848632075994298
h -3.772751545096085 -0.037094640227708 0.514920311848259
h -2.867521469825374 1.454410718100998 0.783889340655582
h -1.497470541073449 -0.524707341008976 1.411916091769596
h -0.511245110231353 0.818781058895391 -1.127209638741242
h -0.442358923085865 1.518717893480936 0.477983732106265
h 1.032609006819464 -0.992639136394334 -0.428369359037131
h 1.004135234868808 -0.406972868802328 1.222122433082708
h 2.037383312161841 1.162667679590553 -1.177074552771175
h 2.032901225386889 1.734505230122042 0.475860476091388
h 3.565490611146366 -0.719823193242688 -0.529528119238681
h 4.286397053923097 0.836316493380667 -0.128331108138004
h 3.557435505414825 -0.150610039676518 1.135366026986465
h -1.798703236944331 -1.345569206484364 -1.510094215348378
h -0.843897042681102 -2.203780040309289 -0.299876381904982
h -2.596194993875609 -2.136960600325812 -0.151488138199893

h8.wfx

