%nprocs=4
%mem=4GB
#p pbepbe aug-cc-pvtz output=wfx scf=(conver=6) int=(grid=ultrafine)

title

0 1
c 1.452718632989095 -0.177550151749721 1.263473219730526
c 1.452718632989095 -0.177550151749721 -1.263473219730526
c -1.452718632989095 0.177550151749721 1.263473219730526
c -1.452718632989095 0.177550151749721 -1.263473219730526
c 0.719272159764546 0.261323938024634 0.000000000000000
c -0.719272159764546 -0.261323938024634 0.000000000000000
c 0.716607270855659 0.261458358005207 -2.525173243695308
c 0.716607270855659 0.261458358005207 2.525173243695308
c -0.716607270855659 -0.261458358005207 -2.525173243695308
c -0.716607270855659 -0.261458358005207 2.525173243695308
h 0.699053559134524 1.354465277637351 -2.567602669454269
h 0.699053559134524 1.354465277637351 2.567602669454269
h -0.699053559134524 -1.354465277637351 -2.567602669454269
h -0.699053559134524 -1.354465277637351 2.567602669454269
h -1.538228879345792 1.269634196419281 -1.255495310805481
h -1.538228879345792 1.269634196419281 1.255495310805481
h 1.538228879345792 -1.269634196419281 -1.255495310805481
h 1.538228879345792 -1.269634196419281 1.255495310805481
h -0.665814210749574 -1.359428069493978 0.000000000000000
h 0.665814210749574 1.359428069493978 0.000000000000000
h 1.247647188713724 -0.081596759173543 -3.414527649703379
h 1.247647188713724 -0.081596759173543 3.414527649703379
h -1.247647188713724 0.081596759173543 -3.414527649703379
h -1.247647188713724 0.081596759173543 3.414527649703379
h -2.470920691248585 -0.218794606621155 -1.255572447952903
h -2.470920691248585 -0.218794606621155 1.255572447952903
h 2.470920691248585 0.218794606621155 -1.255572447952903
h 2.470920691248585 0.218794606621155 1.255572447952903

r13.wfx

