%nprocs=4
%mem=4GB
#p pbepbe aug-cc-pvtz output=wfx scf=(conver=6) int=(grid=ultrafine)

title

0 1
c 2.824472956864426 -1.364736723495466 -0.019894457205691
c 4.197368334814877 -0.911109533727495 0.466283012549249
c 4.568679141041396 0.438037560727887 -0.140223315516532
c 3.497338178003635 1.478499389223145 0.167914544030626
c 2.124434523347762 1.016878821941971 -0.314484315066761
c 1.736544891909761 -0.335189764112714 0.282430993501987
c 0.379930094641676 -0.825045167682924 -0.217486001901050
c -0.802335846679225 0.055912710643783 0.168475481879012
c -2.140579937365379 -0.543248227520868 -0.245865486061713
c -3.329406095863553 0.334233346256842 0.122176490126441
c -4.668458241585501 -0.265645176902244 -0.286141688782722
c -5.845819227957281 0.624853707761682 0.088723562109561
h 2.557686410504076 -2.323627081270915 0.430364905091787
h 2.860385565645043 -1.523444939037045 -1.103414147204643
h 4.180094228678067 -0.821077130338185 1.556436059903543
h 4.952049997077412 -1.660448538290862 0.222343620933895
h 4.661576558357694 0.329598581928989 -1.224950425575964
h 5.539908173570030 0.769374812226102 0.230273710603405
h 3.458799238820198 1.642338774364202 1.248969759041882
h 3.753556786404803 2.436349390941435 -0.287592953734841
h 2.137019761130166 0.921476278548076 -1.406421890972253
h 1.374313676222840 1.770322086387932 -0.070914348638660
h 1.676887459204414 -0.218378796821382 1.372366250742604
h 0.207481891847398 -1.832911687232975 0.172848147583387
h 0.420647887961913 -0.920866168205775 -1.307881210135175
h -0.796765714129136 0.212257090973898 1.251569468233879
h -0.701842341849643 1.042746008388368 -0.288069873143366
h -2.257351739287649 -1.525081980320972 0.221792027028418
h -2.139222432766005 -0.715222434111711 -1.326161718448461
h -3.327897019014399 0.510792838249405 1.201789613524566
h -3.215131380869617 1.314596743430136 -0.349506940428885
h -4.780904047615866 -1.244271253467838 0.185929537175169
h -4.667544078543573 -0.441912148379072 -1.364175844336806
h -5.876934965675964 0.791653588525958 1.165330554558237
h -6.795839166309355 0.183778371593815 -0.208841128340380
h -5.763143520535441 1.598516648804820 -0.393991993123818

r16.wfx

