%nprocs=4
%mem=4GB
#p pbepbe aug-cc-pvtz output=wfx scf=(conver=6) int=(grid=ultrafine)

title

0 1
c -0.574260992997111 0.846846145919173 0.000000000000000
c 0.092344489908613 0.277677036738807 1.250276211889592
c 0.079764916193140 -1.248030606910780 1.255932030111494
c 0.745033879142798 -1.802697799533384 0.000000000000000
c 0.079764916193140 -1.248030606910780 -1.255932030111494
c 0.092344489908613 0.277677036738807 -1.250276211889592
c -0.537745943235778 2.368211242059026 0.000000000000000
h -1.620824123434987 0.520505382059964 0.000000000000000
h 1.129044085615380 0.630880019515397 1.281673586080152
h -0.400961859933443 0.667617047171642 2.143469181204576
h -0.956087106178478 -1.597543366454630 1.296445555284030
h 0.576945713247496 -1.627939666658775 2.149746590825782
h 1.801722392890816 -1.519144775604177 0.000000000000000
h 0.709095295497996 -2.893100697922520 0.000000000000000
h -0.956087106178478 -1.597543366454630 -1.296445555284030
h 0.576945713247496 -1.627939666658775 -2.149746590825782
h -0.400961859933443 0.667617047171642 -2.143469181204576
h 1.129044085615380 0.630880019515397 -1.281673586080152
h 0.495152218204004 2.720777230036597 0.000000000000000
h -1.030136601886599 2.776641173091020 -0.882723958900507
h -1.030136601886599 2.776641173091020 0.882723958900507

r4.wfx

