%nprocs=4
%mem=4GB
#p pbepbe aug-cc-pvtz output=wfx scf=(conver=6) int=(grid=ultrafine)

title

0 1
c -0.839000652128075 -0.554757820182482 0.124222652071048
c 0.106421574904330 -1.708008441819512 -0.220892702490970
c -0.275509167173748 0.571421803655803 -0.757117679938467
c 1.247206321304001 0.434255985033361 -0.587252698480556
c 1.503294082640398 -1.057744272518964 -0.268132699729344
c -0.797223712474933 -0.226970642552825 1.612764260246302
c -0.800643387556137 1.968192086841255 -0.472223458012861
h -1.868061895024042 -0.787098990642238 -0.158742670326507
h 0.047485632712944 -2.533101928958564 0.489116976644437
h -0.151984569234642 -2.101497641011625 -1.205529273086673
h -0.524555893036839 0.310999118707771 -1.790611757138641
h 1.778606237585806 0.768063479747271 -1.477474505024369
h 1.582396711807259 1.067915599972133 0.235319428212384
h 2.140018957063873 -1.534779066058813 -1.010673809521931
h 2.006695090831450 -1.162158420719586 0.691886692473936
h 0.208194153295005 0.050010598733917 1.932178342151131
h -1.103080882726770 -1.093018591242308 2.199613221892450
h -1.464470923799873 0.596494131642838 1.863254037672609
h -0.527148622781137 2.290482243677884 0.532256570486861
h -1.886985610129841 2.011655655070298 -0.558094137493002
h -0.381653446079006 2.689645112624391 -1.173866790607848

r7.wfx

