%nprocs=4
%mem=4GB
#p pbepbe aug-cc-pvtz output=wfx scf=(conver=6) int=(grid=ultrafine)

title

-1 1
f 1.850617366792604 -0.013178999626771 -0.000128000029100
c 0.090857080828860 0.010585978386960 0.000269000354683
h 0.040907038673354 1.079547964384029 -0.011749004055999
h 0.037163004087138 -0.528013018731102 -0.922943261273905
h 0.037486013855261 -0.507462951012718 0.935130212387732
o -1.892803373861399 0.103266286370296 -0.000118000167389
h -2.173822930483118 -0.815112821479521 0.000038999989849

hoch3fts.wfx

