%nprocs=4
%mem=4GB
#p pbepbe aug-cc-pvtz output=wfx scf=(conver=6) int=(grid=ultrafine)

title

0 1
c -0.046423023142533 0.663069625907442 0.000000000000000
o -0.046423023142533 -0.755061791848727 0.000000000000000
h -1.086956445304289 0.975940358714193 0.000000000000000
h 0.860590310785745 -1.057042057702697 0.000000000000000
h 0.438144970105097 1.071594430938922 0.889541595867704
h 0.438144970105097 1.071594430938922 -0.889541595867704

ch3oh.wfx

