%nprocs=4
%mem=4GB
#p pbepbe aug-cc-pvtz output=wfx scf=(conver=6) int=(grid=ultrafine)

title

0 1
n 0.000000000000000 0.000000000000000 0.282226606130426
h 0.469012226021983 0.812353004841055 -0.094075535376802
h 0.469012226021983 -0.812353004841055 -0.094075535376802
h -0.938024452043967 0.000000000000000 -0.094075535376802

NH3.wfx

