%nprocs=4
%mem=4GB
#p pbepbe aug-cc-pvtz output=wfx scf=(conver=6) int=(grid=ultrafine)

title

0 1
p 0.000000000000000 0.000000000000000 0.568849094740784
h 0.595670970735376 1.031732385907549 -0.189616364913595
h 0.595670970735376 -1.031732385907549 -0.189616364913595
h -1.191341941470753 0.000000000000000 -0.189616364913595

PH3.wfx

