%nprocs=4
%mem=4GB
#p pbepbe aug-cc-pvtz output=wfx scf=(conver=6) int=(grid=ultrafine)

title

0 1
c 0.684160192108355 0.337751094838616 -1.911482536733603
c -0.684160192108355 -0.337751094838616 -1.911482536733603
h 1.489645418284101 -0.401434112720452 -1.911482536733603
h 0.812773228222174 0.969660272275182 -2.794291784621500
h 0.812773228222174 0.969660272275182 -1.028673288845705
h -1.489645418284101 0.401434112720452 -1.911482536733603
h -0.812773228222174 -0.969660272275182 -2.794291784621500
h -0.812773228222174 -0.969660272275182 -1.028673288845705
c 0.684160192108355 -0.337751094838616 1.911482536733603
c -0.684160192108355 0.337751094838616 1.911482536733603
h 1.489645418284101 0.401434112720452 1.911482536733603
h 0.812773228222174 -0.969660272275182 2.794291784621500
h 0.812773228222174 -0.969660272275182 1.028673288845705
h -1.489645418284101 -0.401434112720452 1.911482536733603
h -0.812773228222174 0.969660272275182 2.794291784621500
h -0.812773228222174 0.969660272275182 1.028673288845705

AD2.wfx

