%nprocs=4
%mem=4GB
#p pbepbe aug-cc-pvtz output=wfx scf=(conver=6) int=(grid=ultrafine)

title

0 1
c 0.623249175001631 0.440758123733056 0.000000000000000
c -0.623249175001631 -0.440758123733056 0.000000000000000
c 1.919587538994741 -0.364720102403171 0.000000000000000
c -1.919587538994741 0.364720102403171 0.000000000000000
h 0.597629167764884 1.098582308447988 0.877938389378155
h 0.597629167764884 1.098582308447988 -0.877938389378155
h -0.597629167764884 -1.098582308447988 0.877938389378155
h -0.597629167764884 -1.098582308447988 -0.877938389378155
h 2.797386785474433 0.288091080885182 0.000000000000000
h 1.978787555628458 -1.007283282839159 0.884014391080299
h 1.978787555628458 -1.007283282839159 -0.884014391080299
h -2.797386785474433 -0.288091080885182 0.000000000000000
h -1.978787555628458 1.007283282839159 0.884014391080299
h -1.978787555628458 1.007283282839159 -0.884014391080299

AM4.wfx

