%nprocs=4
%mem=4GB
#p pbepbe aug-cc-pvtz output=wfx scf=(conver=6) int=(grid=ultrafine)

title

0 1
c 0.645551181237659 -0.407563114409556 0.000000000000000
c -0.645551181237659 0.407563114409556 0.000000000000000
c 1.905244534932765 0.455548127910710 0.000000000000000
c -1.905244534932765 -0.455548127910710 0.000000000000000
c 3.188871895367216 -0.370459104003069 0.000000000000000
c -3.188871895367216 0.370459104003069 0.000000000000000
h 0.658791184942214 -1.066678299475039 0.878796046755256
h 0.658791184942214 -1.066678299475039 -0.878796046755256
h -0.658791184942214 1.066678299475039 0.878796046755256
h -0.658791184942214 1.066678299475039 -0.878796046755256
h 1.890409530795318 1.113462312651064 -0.878008446513030
h 1.890409530795318 1.113462312651064 0.878008446513030
h -1.890409530795318 -1.113462312651064 -0.878008446513030
h -1.890409530795318 -1.113462312651064 0.878008446513030
h 4.076897144738920 0.268530075374000 0.000000000000000
h 3.237786909131061 -1.013830284642594 -0.884048448236757
h 3.237786909131061 -1.013830284642594 0.884048448236757
h -4.076897144738920 -0.268530075374000 0.000000000000000
h -3.237786909131061 1.013830284642594 -0.884048448236757
h -3.237786909131061 1.013830284642594 0.884048448236757

AM6.wfx

