%nprocs=4
%mem=4GB
#p pbepbe aug-cc-pvtz output=wfx scf=(conver=6) int=(grid=ultrafine)

title

0 1
al 0.000000000000000 0.000000000000000 1.595438397802339
al 0.000000000000000 0.000000000000000 -1.595438397802339
cl 0.000000000000000 1.623079267407353 0.000000000000000
cl 0.000000000000000 -1.623079267407353 0.000000000000000
cl -1.821228206053580 0.000000000000000 2.604293610366179
cl 1.821228206053580 0.000000000000000 2.604293610366179
cl 1.821228206053580 0.000000000000000 -2.604293610366179
cl -1.821228206053580 0.000000000000000 -2.604293610366179

al2cl6.wfx

