%nprocs=4
%mem=4GB
#p pbepbe aug-cc-pvtz output=wfx scf=(conver=6) int=(grid=ultrafine)

title

0 1
al 0.000000000000000 0.000000000000000 1.306563648293408
al 0.000000000000000 0.000000000000000 -1.306563648293408
h 0.000000000000000 1.145492555768775 0.000000000000000
h 0.000000000000000 -1.145492555768775 0.000000000000000
h -1.410720764650015 0.000000000000000 1.996772942429729
h 1.410720764650015 0.000000000000000 1.996772942429729
h 1.410720764650015 0.000000000000000 -1.996772942429729
h -1.410720764650015 0.000000000000000 -1.996772942429729

al2h6.wfx

