%nprocs=4
%mem=4GB
#p pbepbe aug-cc-pvtz output=wfx scf=(conver=6) int=(grid=ultrafine)

title

0 1
c 0.368579747696758 1.702123453798000 2.278860962625325
al 0.243920379749585 -0.006309837552472 1.311368991376235
c 0.270527776872098 -1.791775504713339 2.140279805010960
c -1.459669938231146 0.195420472582477 0.000000000000000
al 0.243920379749585 -0.006309837552472 -1.311368991376235
c 0.368579747696758 1.702123453798000 -2.278860962625325
h 1.372172941602199 -0.009892786156819 0.000000000000000
c 0.270527776872098 -1.791775504713339 -2.140279805010960
h 1.216636922505654 -1.980441959658806 -2.652571562118859
h 0.133368040687619 -2.591003457231281 -1.409135388068650
h -0.519740232946604 -1.895602447072088 -2.888354120079353
h 1.273567406408393 1.752819352816309 -2.888208219442418
h -0.478406649616307 1.835411307261231 -2.956675058991358
h 0.382030591558919 2.558700847412223 -1.602240984807547
h 1.216636922505654 -1.980441959658806 2.652571562118859
h -0.519740232946604 -1.895602447072088 2.888354120079353
h 0.133368040687619 -2.591003457231281 1.409135388068650
h 1.273567406408393 1.752819352816309 2.888208219442418
h 0.382030591558919 2.558700847412223 1.602240984807547
h -0.478406649616307 1.835411307261231 2.956675058991358
h -1.958638138653874 -0.295798889404016 0.845423864466868
h -1.776194691895579 1.238226582262806 0.000000000000000
h -1.958638138653874 -0.295798889404016 -0.845423864466868

al2me5.wfx

