%nprocs=4
%mem=4GB
#p pbepbe aug-cc-pvtz output=wfx scf=(conver=6) int=(grid=ultrafine)

title

0 1
al 0.000000000000000 0.000000000000000 0.000000000000000
f 0.817579765546088 1.416089693166073 0.000000000000000
f 0.817579765546088 -1.416089693166073 0.000000000000000
f -1.635159531092171 0.000000000000000 0.000000000000000

alf3.wfx

