%nprocs=4
%mem=4GB
#p pbepbe aug-cc-pvtz output=wfx scf=(conver=6) int=(grid=ultrafine)

title

0 1
al 0.000000000000000 0.000000000000000 0.000000000000000
h 0.789259089092370 1.367036842643516 0.000000000000000
h 0.789259089092370 -1.367036842643516 0.000000000000000
h -1.578518178184740 0.000000000000000 0.000000000000000

alh3.wfx

