%nprocs=4
%mem=4GB
#p pbepbe aug-cc-pvtz output=wfx scf=(conver=6) int=(grid=ultrafine)

title

0 1
al 0.000000000000000 0.000000000000000 1.679690287629014
al 0.000000000000000 0.000000000000000 -1.679690287629014
br 0.000000000000000 1.775459018254629 0.000000000000000
br 0.000000000000000 -1.775459018254629 0.000000000000000
br -1.960689106603109 0.000000000000000 2.778770734347785
br 1.960689106603109 0.000000000000000 2.778770734347785
br 1.960689106603109 0.000000000000000 -2.778770734347785
br -1.960689106603109 0.000000000000000 -2.778770734347785

al2br6.wfx

