%nprocs=4
%mem=4GB
#p pbepbe aug-cc-pvtz output=wfx scf=(conver=6) int=(grid=ultrafine)

title

0 1
al 0.000000000000000 0.000000000000000 1.376926699885640
al 0.000000000000000 0.000000000000000 -1.376926699885640
f 0.000000000000000 1.168038195738394 0.000000000000000
f 0.000000000000000 -1.168038195738394 0.000000000000000
f -1.441517282670381 0.000000000000000 2.146046078686607
f 1.441517282670381 0.000000000000000 2.146046078686607
f 1.441517282670381 0.000000000000000 -2.146046078686607
f -1.441517282670381 0.000000000000000 -2.146046078686607

al2f6.wfx

