%nprocs=6
%mem=4GB
#p pbepbe aug-cc-pvtz output=wfx scf=(conver=6) int=(grid=ultrafine)

title

0 1
N    0.98906100    1.19725800    3.60005800
C    1.21766400   -0.19303700    3.60000400
N    0.13239100   -1.00897200    3.59996500
C   -1.11096200   -0.50384400    3.59997100
C   -1.35244900    0.92162700    3.60002300
C   -0.26355600    1.73378100    3.60006300
H    1.81520000    1.78095400    3.60009200
O    2.38881600   -0.59496500    3.59999100
N   -2.13042500   -1.36870600    3.59992900
H   -1.95607500   -2.39657400    3.59987100
H   -3.07813600   -1.02513900    3.59992800
H   -2.35981700    1.32922500    3.60003200
H   -0.33218900    2.82085300    3.60010600

ACHC_4_monomerB.wfx

