%nprocs=6
%mem=4GB
#p pbepbe aug-cc-pvtz output=wfx scf=(conver=6) int=(grid=ultrafine)

title

0 1
N   -0.21438600   -1.99302100    0.00015800
C   -1.48345800   -1.53764900    0.00003900
N   -1.89698700   -0.26976500   -0.00012600
C   -0.85909200    0.58333200   -0.00013000
C    0.50235100    0.25822400    0.00002500
C    0.81898700   -1.12041500    0.00016900
N    1.29302500    1.39536200   -0.00001800
C    0.43088400    2.38552800   -0.00019100
N   -0.88463000    1.96029900   -0.00026800
H   -2.24733500   -2.31700400    0.00005500
N    2.07815300   -1.59027900    0.00031300
H    2.83933700   -0.92853500    0.00035400
H    2.25762500   -2.59922600    0.00050700
H    0.68642800    3.44046900   -0.00027200
H   -1.71509300    2.53583600   -0.00040800
N    0.98906100    0.79725800    3.40005800
C    1.21766400   -0.59303700    3.40000400
N    0.13239100   -1.40897200    3.39996500
C   -1.11096200   -0.90384400    3.39997100
C   -1.35244900    0.52162700    3.40002300
C   -0.26355600    1.33378100    3.40006300
H    1.81520000    1.38095400    3.40009200
O    2.38881600   -0.99496500    3.39999100
N   -2.13042500   -1.76870600    3.39992900
H   -1.95607500   -2.79657400    3.39987100
H   -3.07813600   -1.42513900    3.39992800
H   -2.35981700    0.92922500    3.40003200
H   -0.33218900    2.42085300    3.40010600

ACHC_19_dimer.wfx

