%nprocs=6
%mem=4GB
#p pbepbe aug-cc-pvtz output=wfx scf=(conver=6) int=(grid=ultrafine)

title

0 1
N   -0.21438600   -1.99302100    0.00015800
C   -1.48345800   -1.53764900    0.00003900
N   -1.89698700   -0.26976500   -0.00012600
C   -0.85909200    0.58333200   -0.00013000
C    0.50235100    0.25822400    0.00002500
C    0.81898700   -1.12041500    0.00016900
N    1.29302500    1.39536200   -0.00001800
C    0.43088400    2.38552800   -0.00019100
N   -0.88463000    1.96029900   -0.00026800
H   -2.24733500   -2.31700400    0.00005500
N    2.07815300   -1.59027900    0.00031300
H    2.83933700   -0.92853500    0.00035400
H    2.25762500   -2.59922600    0.00050700
H    0.68642800    3.44046900   -0.00027200
H   -1.71509300    2.53583600   -0.00040800
N    0.98906100    1.18559800    3.76668400
C    1.21766400   -0.19115900    3.57313800
N    0.13239100   -0.99914800    3.45954400
C   -1.11096200   -0.49893700    3.52985000
C   -1.35244900    0.91265500    3.72828800
C   -0.26355600    1.71689900    3.84135800
H    1.81520000    1.76360900    3.84795200
O    2.38881600   -0.58917400    3.51718800
N   -2.13042500   -1.35537600    3.40944300
H   -1.95607500   -2.37323300    3.26633400
H   -3.07813600   -1.01515200    3.45725700
H   -2.35981700    1.31628500    3.78502400
H   -0.33218900    2.79338600    3.99269200

ACHC_51_dimer.wfx

