%nprocs=6
%mem=4GB
#p pbepbe aug-cc-pvtz output=wfx scf=(conver=6) int=(grid=ultrafine)

title

0 1
N   -0.21438600   -1.99302100    0.00015800
C   -1.48345800   -1.53764900    0.00003900
N   -1.89698700   -0.26976500   -0.00012600
C   -0.85909200    0.58333200   -0.00013000
C    0.50235100    0.25822400    0.00002500
C    0.81898700   -1.12041500    0.00016900
N    1.29302500    1.39536200   -0.00001800
C    0.43088400    2.38552800   -0.00019100
N   -0.88463000    1.96029900   -0.00026800
H   -2.24733500   -2.31700400    0.00005500
N    2.07815300   -1.59027900    0.00031300
H    2.83933700   -0.92853500    0.00035400
H    2.25762500   -2.59922600    0.00050700
H    0.68642800    3.44046900   -0.00027200
H   -1.71509300    2.53583600   -0.00040800
N    0.98906100    1.12507400    3.19056800
C    1.21766400   -0.18139400    3.66602600
N    0.13239100   -0.94813600    3.94505600
C   -1.11096200   -0.47346800    3.77229800
C   -1.35244900    0.86605400    3.28480700
C   -0.26355600    1.62924300    3.00707100
H    1.81520000    1.67358100    2.99096400
O    2.38881600   -0.55908700    3.80348200
N   -2.13042500   -1.28618700    4.06805800
H   -1.95607500   -2.25208700    4.41955500
H   -3.07813600   -0.96334000    3.95055100
H   -2.35981700    1.24907400    3.14540800
H   -0.33218900    2.65077100    2.63531100

ACHC_45_dimer.wfx

