%nprocs=6
%mem=4GB
#p pbepbe aug-cc-pvtz output=wfx scf=(conver=6) int=(grid=ultrafine)

title

0 1
N    0.98906100    1.19725800    4.40005800
C    1.21766400   -0.19303700    4.40000400
N    0.13239100   -1.00897200    4.39996500
C   -1.11096200   -0.50384400    4.39997100
C   -1.35244900    0.92162700    4.40002300
C   -0.26355600    1.73378100    4.40006300
H    1.81520000    1.78095400    4.40009200
O    2.38881600   -0.59496500    4.39999100
N   -2.13042500   -1.36870600    4.39992900
H   -1.95607500   -2.39657400    4.39987100
H   -3.07813600   -1.02513900    4.39992800
H   -2.35981700    1.32922500    4.40003200
H   -0.33218900    2.82085300    4.40010600

ACHC_7_monomerB.wfx

