%nprocs=6
%mem=4GB
#p pbepbe aug-cc-pvtz output=wfx scf=(conver=6) int=(grid=ultrafine)

title

0 1
N   -0.21438600   -1.99302100    0.00015800
C   -1.48345800   -1.53764900    0.00003900
N   -1.89698700   -0.26976500   -0.00012600
C   -0.85909200    0.58333200   -0.00013000
C    0.50235100    0.25822400    0.00002500
C    0.81898700   -1.12041500    0.00016900
N    1.29302500    1.39536200   -0.00001800
C    0.43088400    2.38552800   -0.00019100
N   -0.88463000    1.96029900   -0.00026800
H   -2.24733500   -2.31700400    0.00005500
N    2.07815300   -1.59027900    0.00031300
H    2.83933700   -0.92853500    0.00035400
H    2.25762500   -2.59922600    0.00050700
H    0.68642800    3.44046900   -0.00027200
H   -1.71509300    2.53583600   -0.00040800
N    0.98906100    1.17108300    3.84898100
C    1.21766400   -0.18882000    3.55986900
N    0.13239100   -0.98691600    3.39018900
C   -1.11096200   -0.49282800    3.49521700
C   -1.35244900    0.90148200    3.79164000
C   -0.26355600    1.69588100    3.96053500
H    1.81520000    1.74201700    3.97037100
O    2.38881600   -0.58196200    3.47629100
N   -2.13042500   -1.33878200    3.31536100
H   -1.95607500   -2.34417600    3.10159800
H   -3.07813600   -1.00272200    3.38679100
H   -2.35981700    1.30017200    3.87639300
H   -0.33218900    2.75918900    4.18659200

ACHC_52_dimer.wfx

