%nprocs=6
%mem=4GB
#p pbepbe aug-cc-pvtz output=wfx scf=(conver=6) int=(grid=ultrafine)

title

0 1
N    0.98906100    2.79725800    3.40005800
C    1.21766400    1.40696300    3.40000400
N    0.13239100    0.59102800    3.39996500
C   -1.11096200    1.09615600    3.39997100
C   -1.35244900    2.52162700    3.40002300
C   -0.26355600    3.33378100    3.40006300
H    1.81520000    3.38095400    3.40009200
O    2.38881600    1.00503500    3.39999100
N   -2.13042500    0.23129400    3.39992900
H   -1.95607500   -0.79657400    3.39987100
H   -3.07813600    0.57486100    3.39992800
H   -2.35981700    2.92922500    3.40003200
H   -0.33218900    4.42085300    3.40010600

ACHC_23_monomerB.wfx

