%nprocs=6
%mem=4GB
#p pbepbe aug-cc-pvtz output=wfx scf=(conver=6) int=(grid=ultrafine)

title

0 1
N    0.92943300    1.19725800    3.26177600
C    1.14423100   -0.19303700    3.18353800
N    0.12439500   -1.00897200    3.55468700
C   -1.04397300   -0.50384400    3.97994400
C   -1.27087800    0.92162700    4.06258600
C   -0.24764000    1.73378100    3.69020100
H    1.70576200    1.78095400    2.97925100
O    2.24475000   -0.59496500    2.78296800
N   -2.00196900   -1.36870600    4.32858200
H   -1.83815300   -2.39657400    4.26889600
H   -2.89252600   -1.02513900    4.65271700
H   -2.21749200    1.32922500    4.40713500
H   -0.31211900    2.82085300    3.71371500

ACHC_44_monomerB.wfx

