%nprocs=6
%mem=4GB
#p pbepbe aug-cc-pvtz output=wfx scf=(conver=6) int=(grid=ultrafine)

title

0 1
N    0.98906100    1.19725800    4.00005800
C    1.21766400   -0.19303700    4.00000400
N    0.13239100   -1.00897200    3.99996500
C   -1.11096200   -0.50384400    3.99997100
C   -1.35244900    0.92162700    4.00002300
C   -0.26355600    1.73378100    4.00006300
H    1.81520000    1.78095400    4.00009200
O    2.38881600   -0.59496500    3.99999100
N   -2.13042500   -1.36870600    3.99992900
H   -1.95607500   -2.39657400    3.99987100
H   -3.07813600   -1.02513900    3.99992800
H   -2.35981700    1.32922500    4.00003200
H   -0.33218900    2.82085300    4.00010600

ACHC_6_monomerB.wfx

