%nprocs=4
%mem=2GB
#p pbepbe aug-cc-pvtz output=wfx scf=(conver=6) int=(grid=ultrafine)
 
title
 
0 1
H	0.000000 1.671891 -2.212555
C	-0.000000 0.605293 -2.199559
C	-0.000000 -0.605293 -2.199559
H	-0.000000 -1.671891 -2.212555
Cl	0.000000 -0.000000 0.611880
F	0.000000 -0.000000 2.268651

Acetylene-ClF.wfx


