%nprocs=4
%mem=2GB
#p pbepbe aug-cc-pvtz output=wfx scf=(conver=6) int=(grid=ultrafine)
 
title
 
0 1
N	0.000000 0.000000 -2.057899
H	0.000000 0.949605 -2.414488
H	0.822382 -0.474803 -2.414488
H	-0.822382 -0.474803 -2.414488
Cl	0.000000 0.000000 0.243855
F	0.000000 0.000000 1.944803

Ammonia-ClF.wfx


