%nproc=8
%mem=5000mb
#p hf/6-31G(d) scf=tight int(grid=ultrafine)  scfcyc=200 symm=tight

This text is a comment

0 1
Cl         0.0000000000        0.0000000000       -0.5514016694
C          0.0000000000        0.0000000000        1.2312896872
H          1.0295252499        0.0000000000        1.5741092243
H         -0.5147626250        0.8915950203        1.5741092243
H         -0.5147626250       -0.8915950203        1.5741092243

