%nproc=8
%mem=5000mb
#p hf/6-31G(d) scf=tight int(grid=ultrafine)  scfcyc=200 symm=tight

This text is a comment

0 1
C        0.051432    0.705304    0.000000 
N        0.051432   -0.759906    0.000000 
H       -0.942095    1.167319    0.000000 
H        0.590310    1.061677    0.877640 
H        0.590310    1.061677   -0.877640 
H       -0.453572   -1.101576   -0.807607 
H       -0.453572   -1.101576    0.807607 

