%nproc=8
%mem=5000mb
#p hf/6-31G(d) scf=tight int(grid=ultrafine)  scfcyc=200 symm=tight

This text is a comment

0 1
C          0.0000000000        1.3510077077       -0.0853488029
H          0.0000000000        2.4279167079        0.0120570842
C          0.0000000000        0.7431506855       -1.2932029040
H          0.0000000000        1.2808042545       -2.2356946537
C          0.0000000000       -1.3510077077       -0.0853488029
H          0.0000000000       -2.4279167079        0.0120570842
C          0.0000000000       -0.7431506855       -1.2932029040
H          0.0000000000       -1.2808042545       -2.2356946537
Si         0.0000000000        0.0000000000        1.2063244461
H          1.2024327291        0.0000000000        2.0729430532
H         -1.2024327291        0.0000000000        2.0729430532

