%nproc=8
%mem=5000mb
#p hf/6-31G(d) scf=tight int(grid=ultrafine)  scfcyc=200 symm=tight

This text is a comment

0 1
C          0.0000000000        0.0000000000        0.3345401500
Cl        -1.4539047070        0.0000000000       -0.6551315528
Cl         1.4539047070        0.0000000000       -0.6551315528
F          0.0000000000        1.0749740123        1.1167937680
F          0.0000000000       -1.0749740123        1.1167937680

