%nproc=8
%mem=5000mb
#p hf/6-31G(d) scf=tight int(grid=ultrafine)  scfcyc=200 symm=tight

This text is a comment

0 1
C        0.000000    1.265790   -0.260971 
H       -0.881481    1.298774   -0.905267 
H        0.881481    1.298774   -0.905267 
H        0.000000    2.166499    0.354619 
C        0.000000    0.000000    0.591729 
H        0.875492    0.000000    1.246553 
H       -0.875492    0.000000    1.246553 
C        0.000000   -1.265790   -0.260971 
H        0.881481   -1.298774   -0.905267 
H        0.000000   -2.166499    0.354619 
H       -0.881481   -1.298774   -0.905267 

