%nproc=8
%mem=5000mb
#p hf/6-31G(d) scf=tight int(grid=ultrafine)  scfcyc=200 symm=tight

This text is a comment

0 1
Cl         0.0000000000        0.0000000000       -0.0888197240
F          0.0000000000        0.0000000000        1.5083826784
F          0.0000000000        1.6528067665        0.0376092614
F         -1.6528067665        0.0000000000        0.0376092614
F          0.0000000000       -1.6528067665        0.0376092614
F          1.6528067665        0.0000000000        0.0376092614


