%nproc=8
%mem=5000mb
#p hf/6-31G(d) scf=tight int(grid=ultrafine)  scfcyc=200 symm=tight

This text is a comment

0 1
C          0.6720773627       -0.7845757193        0.0000000000
C          0.6720773627        0.7845757193        0.0000000000
C         -0.6720773627        0.7845757193        0.0000000000
C         -0.6720773627       -0.7845757193        0.0000000000
H         -1.4356232359        1.5471772721        0.0000000000
H         -1.4356232359       -1.5471772721        0.0000000000
H          1.4356232359       -1.5471772721        0.0000000000
H          1.4356232359        1.5471772721        0.0000000000

