%nproc=8
%mem=5000mb
#p hf/6-31G(d) scf=tight int(grid=ultrafine)  scfcyc=200 symm=tight

This text is a comment

0 1
Si       0.000000    1.170884    0.000000 
H       -1.389950    1.685125    0.000000 
H        0.695457    1.683694    1.204045 
H        0.695457    1.683694   -1.204045 
Si       0.000000   -1.170884    0.000000 
H        1.389950   -1.685125    0.000000 
H       -0.695457   -1.683694    1.204045 
H       -0.695457   -1.683694   -1.204045 

