%nproc=8
%mem=5000mb
#p hf/6-31G(d) scf=tight int(grid=ultrafine)  scfcyc=200 symm=tight

This text is a comment

0 1
C          0.0000000000        0.7103702220       -0.8808039513
C          0.0000000000       -0.7103702220       -0.8808039513
O          0.0000000000        0.0000000000        1.1264898798
H          0.0000000000        1.4065824287       -1.7012730332
H          0.0000000000       -1.4065824287       -1.7012730332
N          0.0000000000        1.1306536532        0.3553585445
N          0.0000000000       -1.1306536532        0.3553585445

