%nproc=8
%mem=5000mb
#p hf/6-31G(d) scf=tight int(grid=ultrafine)  scfcyc=200 symm=tight

This text is a comment

0 1
C   0.00000000   0.67204593   0.81442837
C   0.00000000   -0.67204593   0.81442837
C   0.00000000   -0.78413683   -0.70025586
C   0.00000000   0.78413683   -0.70025586
H   0.00000000   1.41632609   1.60012700
H   0.00000000   -1.41632609   1.60012700
H   -0.88883129   -1.23873203   -1.14056225
H   -0.88883129   1.23873203   -1.14056225
H   0.88883129   -1.23873203   -1.14056225
H   0.88883129   1.23873203   -1.14056225

