%nproc=8
%mem=5000mb
#p hf/6-31G(d) scf=tight int(grid=ultrafine)  scfcyc=200 symm=tight

This text is a comment

0 1
N        0.000000    0.719171   -0.077583 
N        0.000000   -0.719171   -0.077583 
H       -0.215861    1.085383    0.842585 
H        0.942076    1.009588   -0.299501 
H        0.215861   -1.085383    0.842585 
H       -0.942076   -1.009588   -0.299501 

