%nproc=8
%mem=5000mb
#p hf/6-31G(d) scf=tight int(grid=ultrafine)  scfcyc=200 symm=tight

This text is a comment

0 1
C          0.0000000000        0.6676340625        0.4150034844
C          0.0000000000       -0.6676340625        0.4150034844
Cl         0.0000000000        1.6438288217       -0.9750685547
Cl         0.0000000000       -1.6438288217       -0.9750685547
F          0.0000000000        1.3316042279        1.5639760704
F          0.0000000000       -1.3316042279        1.5639760704

