%nproc=8
%mem=5000mb
#p hf/6-31G(d) scf=tight int(grid=ultrafine)  scfcyc=200 symm=tight

This text is a comment

0 1
C          0.5232795897        0.5232795897        0.5232795897
C         -0.5232795897       -0.5232795897        0.5232795897
C         -0.5232795897        0.5232795897       -0.5232795897
C          0.5232795897       -0.5232795897       -0.5232795897
H          1.1401733394        1.1401733394        1.1401733394
H         -1.1401733394       -1.1401733394        1.1401733394
H         -1.1401733394        1.1401733394       -1.1401733394
H          1.1401733394       -1.1401733394       -1.1401733394

