%nproc=8
%mem=5000mb
#p hf/6-31G(d) scf=tight int(grid=ultrafine)  scfcyc=200 symm=tight

This text is a comment

0 1
C          0.0000000000        0.0000000000        0.8631379557
C          0.0000000000        0.6485924272       -0.5009727593
C          0.0000000000       -0.6485924272       -0.5009727593
H          0.0000000000        1.5783581573       -1.0393870564
H          0.0000000000       -1.5783581573       -1.0393870564
H         -0.9129297226        0.0000000000        1.4527178379
H          0.9129297226        0.0000000000        1.4527178379

