%nproc=8
%mem=5000mb
#p hf/6-31G(d) scf=tight int(grid=ultrafine)  scfcyc=200 symm=tight

This text is a comment

0 1
C          0.0000000000        0.0000000000        0.6724925653
C          0.0000000000        0.0000000000       -0.6724925653
Cl         0.0000000000        1.4494843272        1.5846665975
Cl         0.0000000000        1.4494843272       -1.5846665975
Cl         0.0000000000       -1.4494843272       -1.5846665975
Cl         0.0000000000       -1.4494843272        1.5846665975

