%nproc=8
%mem=5000mb
#p hf/6-31G(d) scf=tight int(grid=ultrafine)  scfcyc=200 symm=tight

This text is a comment

0 1
C          0.0000000000        0.0000000000       -0.8075220705
H         -0.8963705276        0.0000000000       -1.4155382736
H          0.8963705276        0.0000000000       -1.4155382736
Cl         0.0000000000        1.4700346804        0.1770330139
Cl         0.0000000000       -1.4700346804        0.1770330139

