%nproc=8
%mem=5000mb
#p hf/6-31G(d) scf=tight int(grid=ultrafine)  scfcyc=200 symm=tight

This text is a comment

0 1
Cl         1.4434051590        0.0000000000        1.0206415760
C          0.0000000000        0.0000000000       -0.0000000001
Cl        -1.4434051590        0.0000000000        1.0206415760
Cl         0.0000000000        1.4434051591       -1.0206415760
Cl         0.0000000000       -1.4434051591       -1.0206415760

