%nproc=8
%mem=5000mb
#p hf/6-31G(d) scf=tight int(grid=ultrafine)  scfcyc=200 symm=tight

This text is a comment

0 1
S                  0.00000000   -0.00000000    0.00000000
F                  0.00000000    0.00000000    1.56070151
F                  0.00000000    1.56070151    0.00000000
F                 -0.00000000    0.00000000   -1.56070151
F                  0.00000000   -1.56070151   -0.00000000
F                  1.56070151    0.00000000   -0.00000000
F                 -1.56070151    0.00000000    0.00000000

