%nprocs=4
%mem=4GB
#p pbepbe aug-cc-pvtz output=wfx scf=(conver=6) int=(grid=ultrafine)

title

0 1
c -0.165193606022170 0.526725928599462 -0.489564072448881
c 1.153634914486424 -0.220749017859078 -0.674329046549564
n 0.074887198336085 1.823613682518409 0.102443594975222
h 0.531751759277332 1.685147687130793 0.999724068845142
h -0.808956937030526 2.275197520593871 0.309400663089000
h -0.597110239758744 0.665333425972654 -1.486286961137419
c -1.161409019059443 -0.324369038026228 0.283717184856159
o -1.794290990254777 0.034258769573135 1.248889348303387
o -1.282495734228369 -1.563509027281858 -0.259446526613833
h -1.959208929725776 -2.020620126592815 0.265338876277144
h 1.011264459150036 -1.138606489275527 -1.237568116739429
h 1.837702725956028 0.428282663851925 -1.218818283425808
s 1.992443407640667 -0.594322589031532 0.891866011292241
h 1.166980991233264 -1.576383390173189 1.264633259276650

3.wfx

