%nprocs=4
%mem=4GB
#p pbepbe aug-cc-pvtz output=wfx scf=(conver=6) int=(grid=ultrafine)

title

0 1
C    -0.1449562    3.2746444   -0.6314323 
C    -1.3036003    3.0577179   -1.3782399 
C    -2.4839931    2.8559951   -0.6627151 
C    -2.4971679    2.8254743    0.7428570 
C    -1.3299575    2.9932286    1.4882012 
C    -0.1576220    3.2419982    0.7732770 
C    -3.9284500    2.6176491   -1.1188811 
C    -4.2388167    1.1744172   -0.7153480 
C    -4.2531302    1.1450773    0.6917948 
C    -3.9502538    2.5696914    1.1611926 
C    -4.3460174    0.0095786   -1.4734845 
C    -4.4538259   -1.1869905   -0.7658145 
C    -4.4697295   -1.2159878    0.6400126 
C    -4.3768734   -0.0498705    1.3987747 
C    -4.6724648    3.3657244    0.0303717 
C     1.2648781    3.7006498   -1.0469685 
C     1.2448140    3.6463086    1.2332440 
C     2.2444931    2.5801630    0.7785897 
C     2.2569883    2.6139076   -0.6263925 
C     3.1289957    1.7754571    1.4976981 
C     4.0580010    1.0433449    0.7572337 
C     4.0707942    1.0775683   -0.6473569 
C     3.1546128    1.8448520   -1.3678343 
C     1.5410353    4.7103514    0.1203800 
C     5.2280335    0.1809888   -1.0986079 
C     4.8479037   -1.2463162   -0.6995191 
C     4.8342846   -1.2809635    0.7086354 
C     5.2067210    0.1246421    1.1849019 
C     4.5244831   -2.3702458   -1.4444441 
C     4.1808925   -3.5457948   -0.7556731 
C     4.1668369   -3.5800088    0.6384902 
C     4.4964282   -2.4399164    1.3908421 
C     6.2299211    0.4900004    0.0608929 
C    -4.4015113   -2.6896205    1.0482785 
C    -2.9982035   -3.1291342    0.6186894 
C    -2.9815151   -3.1000604   -0.7884217 
C    -4.3746858   -2.6426265   -1.2326130 
C    -1.8517333   -3.4288353    1.3376581 
C    -0.6746518   -3.7205924    0.6269603 
C    -0.6580352   -3.6918115   -0.7656089 
C    -1.8179432   -3.3703364   -1.4915169 
C    -5.2265181   -3.3183211   -0.1154676 
H    -1.2980356    3.0912978   -2.4650555 
H    -1.3442710    2.9779250    2.5753688 
H    -4.1594453    2.8931563   -2.1479088 
H    -4.2005712    2.8022084    2.1962924 
H    -4.2957173    0.0301384   -2.5591340 
H    -4.3492656   -0.0743017    2.4851073 
H    -4.4478426    4.4362820    0.0549276 
H    -5.7528952    3.1922560    0.0164583 
H     1.3683213    4.0675028   -2.0689187 
H     1.3304994    3.9638258    2.2731909 
H     3.1329197    1.7597400    2.5848159 
H     3.1779189    1.8821351   -2.4541567 
H     0.8350879    5.5466604    0.1341869 
H     2.5756541    5.0672060    0.1379587 
H     5.5693913    0.3185532   -2.1244938 
H     5.5290225    0.2109750    2.2224798 
H     4.5261457   -2.3456716   -2.5307181 
H     3.9276331   -4.4406188   -1.3175597 
H     3.9027442   -4.5011783    1.1505421 
H     4.4768466   -2.4688363    2.4768857 
H     6.5327073    1.5409601    0.0897445 
H     7.1029189   -0.1700038    0.0526850 
H    -4.6916350   -2.9255230    2.0722917 
H    -4.6403637   -2.8362787   -2.2720203 
H    -1.8551617   -3.4395509    2.4247723 
H     0.2354808   -3.9630357    1.1686477 
H     0.2649950   -3.9118779   -1.2948099 
H    -1.7952605   -3.3360295   -2.5779316 
H    -6.2684304   -2.9849601   -0.1209128 
H    -5.1650363   -4.4105486   -0.1371928 
C     0.2393205   -0.4475808   -1.4157542 
C     0.2088091   -0.5104354    1.3994114 
C     1.4026798   -0.8437499    0.6743043 
C     1.4173407   -0.8141012   -0.6808822 
C    -0.9859252   -0.2083275    0.6631933 
C    -0.9710528   -0.1779804   -0.6925723 
C     0.2108013   -0.4846430    2.7943106 
C     0.2708371   -0.3583669   -2.8077326 
C     1.4679497   -0.5909870   -3.5340250 
C    -0.8881282   -0.0094165   -3.5486689 
C     1.3928511   -0.7501790    3.5338089 
C    -0.9644046   -0.1722320    3.5258960 
N    -1.8514595    0.2799610   -4.1358729 
N     2.4648647   -0.7753346   -4.1074605 
N     2.3784696   -0.9613055    4.1174229 
N    -1.9408850    0.0877713    4.1050705 
H     2.3186060   -1.0767413   -1.2196949 
H     2.2922672   -1.1298884    1.2203963 
H    -1.9012702    0.0021848    1.2000534 
H    -1.8744871    0.0569473   -1.2393828 

01_di.wfx

