%nprocs=4
%mem=4GB
#p pbepbe aug-cc-pvtz output=wfx scf=(conver=6) int=(grid=ultrafine)

title

0 1
C    -0.0000000    1.4161773    0.0000000 
C    -0.0000000   -1.4161773    0.0000000 
C     1.2361517   -0.6792560    0.0000000 
C     1.2361517    0.6792560    0.0000000 
C    -1.2361517   -0.6792560    0.0000000 
C    -1.2361517    0.6792560    0.0000000 
C     0.0000000   -2.8125675    0.0000000 
C     0.0000000    2.8125675    0.0000000 
C     1.2108968    3.5547748    0.0000000 
C    -1.2108968    3.5547748    0.0000000 
C     1.2108968   -3.5547748    0.0000000 
C    -1.2108968   -3.5547748    0.0000000 
N    -2.2114469    4.1502412    0.0000000 
N     2.2114469    4.1502412    0.0000000 
N     2.2114469   -4.1502412    0.0000000 
N    -2.2114469   -4.1502412    0.0000000 
H     2.1717361    1.2300791    0.0000000 
H     2.1717361   -1.2300791    0.0000000 
H    -2.1717361   -1.2300791    0.0000000 
H    -2.1717361    1.2300791    0.0000000 

01_m2.wfx

