%nprocs=4
%mem=4GB
#p pbepbe aug-cc-pvtz output=wfx scf=(conver=6) int=(grid=ultrafine)

title

0 1
C     0.7027812   -1.1864578    3.3594438 
C     1.4332484    0.0000000    3.3429664 
C     0.7027812    1.1864578    3.3594438 
C    -0.7027812    1.1864578    3.3594438 
C    -1.4332484    0.0000000    3.3429664 
C    -0.7027812   -1.1864578    3.3594438 
C     1.1390695    2.6534224    3.3619047 
C     0.7029299    3.2320885    2.0140149 
C    -0.7029299    3.2320885    2.0140149 
C    -1.1390695    2.6534224    3.3619047 
C     1.4332859    3.6833062    0.9169325 
C     0.7027223    4.1648126   -0.1676934 
C    -0.7027223    4.1648126   -0.1676934 
C    -1.4332859    3.6833062    0.9169325 
C    -0.0000000    3.2406946    4.2547487 
C     1.1390695   -2.6534224    3.3619047 
C    -1.1390695   -2.6534224    3.3619047 
C    -0.7029299   -3.2320885    2.0140149 
C     0.7029299   -3.2320885    2.0140149 
C    -1.4332859   -3.6833062    0.9169325 
C    -0.7027223   -4.1648126   -0.1676934 
C     0.7027223   -4.1648126   -0.1676934 
C     1.4332859   -3.6833062    0.9169325 
C    -0.0000000   -3.2406946    4.2547487 
C     1.1402595   -4.7288673   -1.5212871 
C     0.7036006   -3.6991753   -2.5646339 
C    -0.7036006   -3.6991753   -2.5646339 
C    -1.1402595   -4.7288673   -1.5212871 
C     1.4153925   -2.8440153   -3.3893967 
C     0.6968060   -1.9852255   -4.2362891 
C    -0.6968060   -1.9852255   -4.2362891 
C    -1.4153925   -2.8440153   -3.3893967 
C     0.0000000   -5.7762033   -1.7268985 
C    -1.1402595    4.7288673   -1.5212871 
C    -0.7036006    3.6991753   -2.5646339 
C     0.7036006    3.6991753   -2.5646339 
C     1.1402595    4.7288673   -1.5212871 
C    -1.4153925    2.8440153   -3.3893967 
C    -0.6968060    1.9852255   -4.2362891 
C     0.6968060    1.9852255   -4.2362891 
C     1.4153925    2.8440153   -3.3893967 
C     0.0000000    5.7762033   -1.7268985 
H     2.5210054    0.0000000    3.3404506 
H    -2.5210054    0.0000000    3.3404506 
H     2.1706950    2.8484828    3.6583708 
H    -2.1706950    2.8484828    3.6583708 
H     2.5209964    3.6786862    0.9147752 
H    -2.5209964    3.6786862    0.9147752 
H    -0.0000000    2.8274834    5.2683745 
H    -0.0000000    4.3351292    4.2767700 
H     2.1706950   -2.8484828    3.6583708 
H    -2.1706950   -2.8484828    3.6583708 
H    -2.5209964   -3.6786862    0.9147752 
H     2.5209964   -3.6786862    0.9147752 
H    -0.0000000   -2.8274834    5.2683745 
H    -0.0000000   -4.3351292    4.2767700 
H     2.1716788   -5.0774813   -1.5885460 
H    -2.1716788   -5.0774813   -1.5885460 
H     2.5025567   -2.8355749   -3.3912895 
H     1.2340353   -1.3130363   -4.8989056 
H    -1.2340353   -1.3130363   -4.8989056 
H    -2.5025567   -2.8355749   -3.3912895 
H     0.0000000   -6.5570894   -0.9602016 
H     0.0000000   -6.2120698   -2.7310111 
H    -2.1716788    5.0774813   -1.5885460 
H     2.1716788    5.0774813   -1.5885460 
H    -2.5025567    2.8355749   -3.3912895 
H    -1.2340353    1.3130363   -4.8989056 
H     1.2340353    1.3130363   -4.8989056 
H     2.5025567    2.8355749   -3.3912895 
H     0.0000000    6.5570894   -0.9602016 
H     0.0000000    6.2120698   -2.7310111 

02_m1.wfx

