%nprocs=4
%mem=4GB
#p pbepbe aug-cc-pvtz output=wfx scf=(conver=6) int=(grid=ultrafine)

title

0 1
C     1.2122247    0.8858035    0.0000000 
C    -0.2237561    1.0001807    0.0000000 
C     1.0605585   -1.5073426    0.0000000 
C    -1.0031564   -0.1922651    0.0000000 
C    -0.3569535   -1.4027704    0.0000000 
C     1.8543633   -0.3849182    0.0000000 
N    -2.4718022   -0.1587627    0.0000000 
N     1.7480475    2.0974418    0.0000000 
O     0.6698945    2.9401719    0.0000000 
N    -0.5485780    2.2878993    0.0000000 
Cl    3.5704868   -0.4832280    0.0000000 
O    -3.0027909    0.9517745    0.0000000 
O    -3.0653453   -1.2426480    0.0000000 
H     1.5199028   -2.4892822    0.0000000 
H    -0.9630958   -2.3020546    0.0000000 

04_m2.wfx

