%nprocs=4
%mem=4GB
#p pbepbe aug-cc-pvtz output=wfx scf=(conver=6) int=(grid=ultrafine)

title

0 1
C     2.3466205   -2.5166953   -3.3293949 
C     3.7052690   -2.6666135   -1.3800355 
C     3.2612757   -1.2173120    1.9248221 
C     4.0146805   -2.2814377    0.0168708 
C     1.1754863   -1.9660799   -4.0506007 
C    -0.8002289   -0.7802957   -3.8675965 
C     4.1682516   -3.8775149   -3.2506281 
C     2.1385800   -0.5253030    2.6292481 
C     2.1257701    0.8823692    2.7211640 
C     1.1168294   -1.2944047    3.2214680 
C    -1.8002645   -0.1279447   -2.9687289 
C    -1.8126983    1.2759532   -2.8278250 
C    -2.7313453   -0.9286299   -2.2764223 
C     1.0689946    1.5366076    3.4594109 
C    -3.7251591   -0.2987404   -1.4383904 
C     0.0634879   -0.6318648    3.9557512 
C    -2.8119439    1.8961869   -1.9875781 
C     2.6201054   -2.0877669   -2.0328318 
C    -3.7410296    1.0939684   -1.3177011 
C     0.0685207    0.7629433    4.0563609 
C    -0.9914056   -0.8137710   -5.2556502 
C     4.4836370   -1.4370568    2.5744110 
C    -2.7264735   -2.3534488   -2.3638113 
C     3.1185161    1.6966146    2.0966569 
C    -0.8532526    2.1169177   -3.4693937 
C     1.0799208   -2.7181773    3.1219408 
C     5.2535892   -2.5666852    0.5994788 
C     1.0471323   -2.0725501   -5.4390471 
C    -4.6572067   -1.1193412   -0.7389075 
C     1.0762414    2.9598273    3.5598713 
C    -2.8168301    3.3167579   -1.8548795 
C    -0.9611247   -1.4227523    4.5523054 
C     5.4871654   -2.1291239    1.8997418 
C    -0.0558144   -1.4787517   -6.0458329 
C    -3.6403773   -3.1078458   -1.6712966 
C     3.0840234    3.0632193    2.2093746 
C    -0.8864053    3.4784924   -3.3071693 
C    -4.6179651   -2.4862965   -0.8499680 
C     0.0733937   -3.4426866    3.7093162 
C     2.0576900    3.7028897    2.9576326 
C    -0.9589541   -2.7896212    4.4336536 
C    -1.8844156    4.0883647   -2.4975777 
N     0.2621443   -1.3444042   -3.2793455 
N     3.0329818   -1.6299558    0.6716299 
N     4.5005417   -3.5682623   -1.9920881 
N     3.1309405   -3.4156340   -3.9586593 
H    -1.9735565   -2.8392616   -2.9750171 
H     2.0358756   -1.3060482   -1.5672212 
H    -0.0795785    1.6583591   -4.0766719 
H     3.8972484    1.2159960    1.5134047 
H     1.8548672   -3.2244404    2.5563676 
H    -3.6077519   -4.1911461   -1.7360239 
H    -4.4819572    1.5634630   -0.6753829 
H    -0.7232444    1.2591373    4.6145441 
H     5.9962529   -3.1117896    0.0274921 
H     1.8049548   -2.6040945   -6.0039378 
H    -1.8630098   -0.3369946   -5.6931292 
H    -5.3267362   -3.1013595   -0.3037086 
H     4.6282875   -1.0793692    3.5890927 
H     0.2813820    3.4422475    4.1231542 
H    -5.3968251   -0.6344804   -0.1067084 
H    -1.7511095   -0.9154115    5.1006527 
H    -3.5785433    3.7722586   -1.2270864 
H     4.8127392   -4.5949111   -3.7551138 
H     3.8416052    3.6672981    1.7188057 
H     0.0528323   -4.5232741    3.6068520 
H    -0.1407765    4.1007338   -3.7934318 
H     2.0514771    4.7861003    3.0402626 
H    -1.7506820   -3.3797610    4.8854247 
H    -1.8966725    5.1689202   -2.3863445 
H    -0.1865712   -1.5315990   -7.1229766 
H     6.4400572   -2.3235224    2.3837981 
C    -0.0187072    2.2707407    0.1322004 
C    -0.4007932   -0.0584643    0.2228725 
C    -1.1638671    2.0451516    0.9326366 
C    -1.4034722    0.5855680    0.9947812 
C    -1.7473940    3.1725375    1.5180171 
C    -0.1247264    4.6073449    0.4903879 
C    -1.3239091   -2.1669066    0.7693820 
C    -1.2244273    4.4506472    1.3199274 
C     0.5095788    0.9593981   -0.3589201 
C    -0.3470739   -1.4361973    0.0984196 
C     0.5067990    3.5206985   -0.1163901 
C    -2.3189010   -1.5653904    1.5406458 
C    -2.3626748   -0.1771607    1.6582279 
N    -2.9361553    3.0987312    2.3862907 
N     0.4012121    5.9646086    0.2680957 
N    -1.3054231   -3.6358951    0.6637092 
O    -3.8517820    2.3451790    2.0413234 
O    -2.9457957    3.8159232    3.3887628 
O     1.3913393    6.0737651   -0.4612759 
O    -0.4068348   -4.1529244   -0.0050111 
O    -0.1774815    6.9033671    0.8244707 
O    -2.1928399   -4.2634649    1.2545214 
O     1.4869267    0.8097521   -1.0723394 
H    -3.1442004    0.2824298    2.2467906 
H    -1.6736263    5.3102034    1.8011702 
H    -3.0471708   -2.1927324    2.0367013 
H     1.3782981    3.6531535   -0.7455073 
H     0.4136427   -1.9312584   -0.4867363 

05_di.wfx

