%nprocs=4
%mem=4GB
#p pbepbe aug-cc-pvtz output=wfx scf=(conver=6) int=(grid=ultrafine)

title

0 1
C    -2.1377443    3.3980171    0.4042653 
C    -2.5104352    2.0911603    2.3624677 
C    -0.9956030   -1.0207258    3.4893353 
C    -2.2634454    0.8924382    3.2001457 
C    -1.4871234    3.6193676   -0.9094759 
C    -0.2919162    2.6524991   -2.6425486 
C    -3.4778978    4.1346709    2.0909610 
C     0.1269997   -1.8716692    3.0015971 
C     1.4439957   -1.3616241    3.0157593 
C    -0.1328825   -3.1782739    2.5355460 
C     0.2695090    1.4126725   -3.2424966 
C    -0.0675584    1.0662457   -4.5736946 
C     1.1275501    0.5822949   -2.4792730 
C     2.5335536   -2.1987615    2.5685602 
C     1.6723288   -0.6142240   -3.0810518 
C     0.9653105   -4.0051569    2.0878993 
C     0.5114517   -0.1170475   -5.1693848 
C    -1.9069505    2.2180034    1.1121035 
C     1.3633434   -0.9209260   -4.4086869 
C     2.2656838   -3.4954080    2.1208608 
C    -0.1233847    3.9057869   -3.2563432 
C    -1.6994607   -1.3491832    4.6580302 
C     1.5052442    0.8750828   -1.1327127 
C     1.7555721   -0.0464699    3.4775123 
C    -1.0048084    1.8068965   -5.3590872 
C    -1.4536181   -3.7164207    2.4503504 
C    -3.0070505    0.6440179    4.3588504 
C    -1.4064042    4.8935246   -1.4804089 
C     2.5208171   -1.4618255   -2.3076017 
C     3.8624034   -1.6796335    2.5940468 
C     0.1826886   -0.4538346   -6.5165220 
C     0.6920222   -5.3227128    1.6136583 
C    -2.7159586   -0.5022122    5.0928576 
C    -0.6971813    5.0306783   -2.6706823 
C     2.3200764    0.0323789   -0.4206756 
C     3.0471876    0.4157237    3.4841738 
C    -1.3042067    1.4436802   -6.6477989 
C     2.8297126   -1.1556396   -1.0094550 
C    -1.6741620   -4.9870882    1.9838746 
C     4.1160560   -0.4072098    3.0345667 
C    -0.5892210   -5.8054346    1.5660569 
C    -0.6929909    0.3078131   -7.2439859 
N    -0.9536857    2.5261561   -1.4815725 
N    -1.2794888    0.0781927    2.7753756 
N    -3.3223593    3.0499988    2.8563100 
N    -2.9210134    4.3786476    0.9001868 
H     1.1209759    1.7713035   -0.6626163 
H    -1.2730953    1.4371629    0.7132102 
H    -1.5044213    2.6616552   -4.9164337 
H     0.9496330    0.5951690    3.8142194 
H    -2.2927539   -3.0960372    2.7478356 
H     2.5757153    0.2692631    0.6071502 
H     1.7891224   -1.8159474   -4.8584602 
H     3.0898234   -4.1220600    1.7853718 
H    -3.7803182    1.3438906    4.6550279 
H    -1.8740495    5.7343426   -0.9805195 
H     0.4518805    3.9833643   -4.1733292 
H     3.4651768   -1.8117949   -0.4232287 
H    -1.4380403   -2.2462967    5.2105272 
H     4.6724346   -2.3202020    2.2533570 
H     2.9121624   -2.3614630   -2.7767332 
H     1.5281091   -5.9347200    1.2840593 
H     0.6395876   -1.3406131   -6.9492798 
H    -4.1285910    4.9128325    2.4860322 
H     3.2588250    1.4219045    3.8346898 
H    -2.6882126   -5.3717825    1.9221472 
H    -2.0265252    2.0228359   -7.2163245 
H     5.1317312   -0.0224186    3.0442434 
H    -0.7838040   -6.8093417    1.1997643 
H    -0.9374278    0.0389297   -8.2676350 
H    -0.5823926    6.0069042   -3.1335134 
H    -3.2705005   -0.7313472    5.9985444 

05_m1.wfx

