%nprocs=4
%mem=4GB
#p pbepbe aug-cc-pvtz output=wfx scf=(conver=6) int=(grid=ultrafine)

title

0 1
C     1.4140390   -8.5349588   -0.4017809 
C     0.6910683   -8.6772488    0.8034747 
C    -0.6933259   -8.6751667    0.8031388 
C    -1.4154221   -8.5308356   -0.4024019 
C    -0.6923629   -8.5088545   -1.6164181 
C     0.6916424   -8.5110099   -1.6161586 
C     2.8000873   -8.2524843   -0.3928754 
C     3.9319650   -7.7948095   -0.3900247 
C    -2.8009163   -8.2452988   -0.3939553 
C    -3.9323060   -7.7864507   -0.3904228 
C    -5.1311792   -7.0361796   -0.3859672 
C    -5.7859872   -6.7142720    0.8227316 
C    -6.7888647   -5.7598670    0.8530676 
C    -7.1777809   -5.0837390   -0.3238921 
C    -6.6094095   -5.4958073   -1.5503626 
C    -5.6078598   -6.4504991   -1.5806373 
C     5.1297755   -7.0426989   -0.3835160 
C     5.7801211   -6.7184009    0.8268685 
C     6.7808247   -5.7616766    0.8590751 
C     7.1725003   -5.0866332   -0.3175823 
C     6.6088954   -5.5015026   -1.5453936 
C     5.6086803   -6.4574236   -1.5774988 
C    -7.9673315   -3.9120400   -0.2648817 
C    -8.4291654   -2.7835980   -0.2095572 
C    -8.7074336   -1.3985815   -0.1508678 
C    -8.8767270   -0.7402388    1.0865417 
C    -8.8716790    0.6428611    1.1591718 
C    -8.6985009    1.4271355   -0.0025344 
C    -8.6442123    0.7687351   -1.2515993 
C    -8.6486843   -0.6129196   -1.3239309 
C    -5.1316407    7.0766246    0.3494058 
C    -5.6518293    6.6604019   -0.8952681 
C    -6.6411790    5.6947170   -0.9598665 
C    -7.1550505    5.1047428    0.2160929 
C    -6.7203798    5.6093059    1.4619435 
C    -5.7290013    6.5734202    1.5268421 
C    -7.9448171    3.9335265    0.1461666 
C    -8.4178126    2.8101833    0.0837077 
C     0.6932640    8.2968722    1.6848831 
C    -0.6899214    8.2969628    1.6845144 
C    -1.4124768    8.5349863    0.4931443 
C    -0.6900442    8.8801843   -0.6693557 
C     0.6946733    8.8801176   -0.6689999 
C    -3.9391270    7.8343670    0.4130110 
C    -2.8027015    8.2777510    0.4500756 
C     1.4164687    8.5347893    0.4938700 
C     7.9611235   -3.9142422   -0.2582823 
C     8.4233977   -2.7859264   -0.2036762 
C     8.7040138   -1.4013619   -0.1443425 
C     8.6537558   -0.6156119   -1.3176759 
C     8.6511342    0.7660957   -1.2454733 
C     8.6999790    1.4245309    0.0037549 
C     8.8656978    0.6398844    1.1663902 
C     8.8685720   -0.7431836    1.0938647 
C     8.4202913    2.8078623    0.0890592 
C     7.9476617    3.9314122    0.1507785 
C     7.1581561    5.1028817    0.2204156 
C     6.6464126    5.6943392   -0.9557442 
C     5.6577403    6.6607655   -0.8917015 
C     5.1352111    7.0753667    0.3525400 
C     5.7300675    6.5702324    1.5303982 
C     6.7213222    5.6059374    1.4660963 
C     3.9429715    7.8336261    0.4151403 
C     2.8066578    8.2773339    0.4515734 
H     1.2334797   -8.7149223    1.7421330 
H    -1.2362868   -8.7111485    1.7415526 
H    -1.2369016   -8.4306669   -2.5520952 
H     1.2367354   -8.4346415   -2.5516510 
H    -5.4427957   -7.1704888    1.7451315 
H    -7.2343932   -5.4697496    1.7989761 
H    -6.9238832   -5.0061882   -2.4665372 
H    -5.1362432   -6.7149920   -2.5218035 
H     5.4358819   -7.1754292    1.7484668 
H     7.2227920   -5.4694265    1.8060129 
H     6.9253135   -5.0130588   -2.4615604 
H     5.1395780   -6.7246630   -2.5191445 
H    -8.9445495   -1.3326857    1.9931353 
H    -8.9407855    1.1371874    2.1229288 
H    -8.5350809    1.3616594   -2.1537170 
H    -8.5431665   -1.1086237   -2.2835146 
H    -5.2143341    7.0530745   -1.8070698 
H    -6.9828728    5.3307437   -1.9232521 
H    -7.1297895    5.1861042    2.3736853 
H    -5.3575416    6.9082802    2.4901672 
H     1.2382367    8.0608194    2.5934659 
H    -1.2352927    8.0609295    2.5928378 
H    -1.2331392    9.0852631   -1.5860057 
H     1.2382558    9.0852159   -1.5853611 
H     8.5526686   -1.1107557   -2.2780024 
H     8.5446362    1.3589282   -2.1479636 
H     8.9313292    1.1341020    2.1304541 
H     8.9315315   -1.3357855    2.0007081 
H     6.9885931    5.3303747   -1.9189603 
H     5.2228052    7.0555791   -1.8038034 
H     5.3569899    6.9038778    2.4935239 
H     7.1288121    5.1813518    2.3780564 
C     3.7404351    3.6865782   -2.0017825 
C     3.6074957    4.0144693    0.3992507 
C     5.3833343   -0.7583348    1.3915466 
C     5.1374332   -1.2512980   -0.9717081 
C    -2.6506289    4.5019226   -2.1671529 
C     0.6922558   -5.3177472   -0.0156290 
C    -2.5132111    4.8292696    0.2342008 
C     0.6999917   -5.2771122    2.4119340 
C     4.9792070   -2.0453264    1.7028379 
C     2.5076350    4.8328062    0.2271347 
C     2.6417878    4.5109465   -2.1750546 
C     4.7248109   -2.5326160   -0.6612175 
C    -3.6112293    4.0091558    0.4097386 
C    -3.7469558    3.6752903   -1.9903176 
C    -0.6872063   -5.3188267   -0.0130983 
C    -0.6863825   -5.2788420    2.4144245 
C    -5.3826985   -0.7697951    1.4067592 
C    -5.1379362   -1.2604974   -0.9569817 
C    -4.7234407   -2.5416231   -0.6479552 
C    -4.9767006   -2.0565462    1.7166261 
C     4.5464128   -2.9237084    0.6855648 
C     1.9452841    5.0196425   -1.0560397 
C    -1.9533732    5.0144493   -1.0503422 
C     1.4122855   -5.1968306    1.1961612 
C     4.1854720    3.3474102   -0.7048377 
C     5.3776939   -0.3081678    0.0530107 
C    -4.5434236   -2.9336298    0.6982886 
C    -5.3784353   -0.3183987    0.0685464 
C    -4.1895994    3.3384727   -0.6919232 
C    -1.4030299   -5.1993211    1.2012185 
C     2.7502201   -4.7509415    1.1415578 
C    -0.6157147    5.4511953   -1.1658671 
C     0.6062483    5.4531996   -1.1677351 
C     3.7259432   -4.0350250    0.9744842 
C     5.3615803    1.0711293   -0.2438028 
C     4.9914282    2.2092627   -0.4884413 
C    -4.9934420    2.1994002   -0.4722902 
C    -2.7421424   -4.7564869    1.1508248 
C    -5.3630537    1.0610986   -0.2275610 
C    -3.7204150   -4.0436133    0.9856031 
H    -1.2289251   -5.2408998    3.3538039 
H    -1.2376388   -5.3254894   -0.9474481 
H    -3.9844369    3.8016227    1.4066381 
H    -4.2200420    3.2064117   -2.8473422 
H     3.9822460    3.8052848    1.3952103 
H     4.2134908    3.2209915   -2.8606166 
H     5.1889752   -0.9289414   -2.0065629 
H     5.6248190   -0.0551741    2.1817874 
H     1.2391937   -5.3243433   -0.9519709 
H     1.2457176   -5.2357403    3.3493240 
H    -2.2569987    4.6797761   -3.1629422 
H    -2.0170032    5.2711220    1.0916829 
H     2.0118374    5.2717759    1.0863195 
H     2.2453184    4.6887194   -3.1697322 
H     4.4531105   -3.2281806   -1.4478070 
H     4.8974001   -2.3553108    2.7398154 
H    -4.8925448   -2.3669198    2.7533072 
H    -5.1912531   -0.9373303   -1.9914876 
H    -5.6236721   -0.0673830    2.1978444 
H    -4.4511545   -3.2356979   -1.4356864 

07_di.wfx

