%nprocs=4
%mem=4GB
#p pbepbe aug-cc-pvtz output=wfx scf=(conver=6) int=(grid=ultrafine)

title

0 1
C     4.7544139    2.5989409   -1.2136832 
C     4.7544139    2.5989409    1.2136832 
C     4.7544139   -2.5989409    1.2136832 
C     4.7544139   -2.5989409   -1.2136832 
C    -1.0025450    5.3248332   -1.2136832 
C    -1.0025450   -5.3248332   -1.2136832 
C    -1.0025450    5.3248332    1.2136832 
C    -1.0025450   -5.3248332    1.2136832 
C     3.9409344   -3.7185994    1.2136832 
C     3.9409344    3.7185994    1.2136832 
C     3.9409344    3.7185994   -1.2136832 
C     3.9409344   -3.7185994   -1.2136832 
C    -2.3187825    4.8971617    1.2136832 
C    -2.3187825    4.8971617   -1.2136832 
C    -2.3187825   -4.8971617   -1.2136832 
C    -2.3187825   -4.8971617    1.2136832 
C    -5.3740208    0.6919870    1.2136832 
C    -5.3740208    0.6919870   -1.2136832 
C    -5.3740208   -0.6919870   -1.2136832 
C    -5.3740208   -0.6919870    1.2136832 
C     3.4382307   -4.2412482    0.0000000 
C     3.4382307    4.2412482    0.0000000 
C    -0.2886439    5.4521832    0.0000000 
C    -0.2886439   -5.4521832    0.0000000 
C     5.0961385    1.9593340    0.0000000 
C     5.0961385   -1.9593340    0.0000000 
C    -5.2745303   -1.4103006    0.0000000 
C    -5.2745303    1.4103006    0.0000000 
C    -2.9711950    4.5805695    0.0000000 
C    -2.9711950   -4.5805695    0.0000000 
C     1.1250954   -5.4406386    0.0000000 
C     1.1250954    5.4406386    0.0000000 
C     2.2877059    5.0628836    0.0000000 
C     2.2877059   -5.0628836    0.0000000 
C     5.5220284   -0.6112205    0.0000000 
C     5.5220284    0.6112205    0.0000000 
C    -4.1081484    3.7402546    0.0000000 
C    -4.1081484   -3.7402546    0.0000000 
C    -4.8266812    2.7512791    0.0000000 
C    -4.8266812   -2.7512791    0.0000000 
H    -2.8298479   -4.7087847    2.1523657 
H    -2.8298479   -4.7087847   -2.1523657 
H    -2.8298479    4.7087847    2.1523657 
H    -2.8298479    4.7087847   -2.1523657 
H     5.0571493    2.1461440    2.1523657 
H     5.0571493    2.1461440   -2.1523657 
H     5.0571493   -2.1461440   -2.1523657 
H     5.0571493   -2.1461440    2.1523657 
H    -0.4783592   -5.4728297   -2.1523657 
H    -0.4783592   -5.4728297    2.1523657 
H    -0.4783592    5.4728297   -2.1523657 
H    -0.4783592    5.4728297    2.1523657 
H     3.6038493    4.1464398    2.1523657 
H     3.6038493    4.1464398   -2.1523657 
H     3.6038493   -4.1464398   -2.1523657 
H     3.6038493   -4.1464398    2.1523657 
H    -5.3527915   -1.2362508    2.1523657 
H    -5.3527915    1.2362508   -2.1523657 
H    -5.3527915    1.2362508    2.1523657 
H    -5.3527915   -1.2362508   -2.1523657 

07_m2.wfx

