%nprocs=4
%mem=4GB
#p pbepbe aug-cc-pvtz output=wfx scf=(conver=6) int=(grid=ultrafine)

title

0 1
C    -9.7410376   -1.4134363    0.0000000 
C    -9.7964719   -0.6920168    1.2135612 
C    -9.7964719    0.6920168    1.2135612 
C    -9.7410376    1.4134363    0.0000000 
C    -9.7964719    0.6920168   -1.2135612 
C    -9.7964719   -0.6920168   -1.2135612 
C    -9.4883918   -2.8042243    0.0000000 
C    -9.0710504   -3.9508602    0.0000000 
C    -9.4883918    2.8042243    0.0000000 
C    -9.0710504    3.9508602    0.0000000 
C    -8.3706071    5.1786632    0.0000000 
C    -7.9493526    5.7669351    1.2135612 
C    -7.0597130    6.8271663    1.2135612 
C    -6.5535284    7.3441733    0.0000000 
C    -7.0597130    6.8271663   -1.2135612 
C    -7.9493526    5.7669351   -1.2135612 
C    -8.3706071   -5.1786632    0.0000000 
C    -7.9493526   -5.7669351    1.2135612 
C    -7.0597130   -6.8271663    1.2135612 
C    -6.5535284   -7.3441733    0.0000000 
C    -7.0597130   -6.8271663   -1.2135612 
C    -7.9493526   -5.7669351   -1.2135612 
C    -5.4660092    8.2471811    0.0000000 
C    -4.4092637    8.8572933    0.0000000 
C    -3.0834765    9.3476087    0.0000000 
C    -2.3826430    9.5274740    1.2135612 
C    -1.0196360    9.7678089    1.2135612 
C    -0.2995504    9.8384900    0.0000000 
C    -1.0196360    9.7678089   -1.2135612 
C    -2.3826430    9.5274740   -1.2135612 
C     6.0945906    7.7292679    0.0000000 
C     5.4975400    8.1379851   -1.2135612 
C     4.2989318    8.8300019   -1.2135612 
C     3.6464470    9.1427042    0.0000000 
C     4.2989318    8.8300019    1.2135612 
C     5.4975400    8.1379851    1.2135612 
C     2.3156664    9.6193004    0.0000000 
C     1.1139799    9.8311902    0.0000000 
C     9.4423560    2.7003076    1.2135612 
C     8.9689886    4.0008738    1.2135612 
C     8.6701575    4.6598268    0.0000000 
C     8.9689886    4.0008738   -1.2135612 
C     9.4423560    2.7003076   -1.2135612 
C     7.1727253    6.8150762    0.0000000 
C     7.9570705    5.8803300    0.0000000 
C     9.6370049    2.0034354    0.0000000 
C    -5.4660092   -8.2471811    0.0000000 
C    -4.4092637   -8.8572933    0.0000000 
C    -3.0834765   -9.3476087    0.0000000 
C    -2.3826430   -9.5274740   -1.2135612 
C    -1.0196360   -9.7678089   -1.2135612 
C    -0.2995504   -9.8384900    0.0000000 
C    -1.0196360   -9.7678089    1.2135612 
C    -2.3826430   -9.5274740    1.2135612 
C     8.6701575   -4.6598268    0.0000000 
C     8.9689886   -4.0008738   -1.2135612 
C     9.4423560   -2.7003076   -1.2135612 
C     9.6370049   -2.0034354    0.0000000 
C     9.4423560   -2.7003076    1.2135612 
C     8.9689886   -4.0008738    1.2135612 
C     9.8752729   -0.6101122    0.0000000 
C     9.8752729    0.6101122    0.0000000 
C     3.6464470   -9.1427042    0.0000000 
C     4.2989318   -8.8300019    1.2135612 
C     5.4975400   -8.1379851    1.2135612 
C     6.0945906   -7.7292679    0.0000000 
C     5.4975400   -8.1379851   -1.2135612 
C     4.2989318   -8.8300019   -1.2135612 
C     2.3156664   -9.6193004    0.0000000 
C     1.1139799   -9.8311902    0.0000000 
C     7.1727253   -6.8150762    0.0000000 
C     7.9570705   -5.8803300    0.0000000 
H    -9.7843091   -1.2373635    2.1517615 
H    -9.7843091    1.2373635    2.1517615 
H    -9.7843091    1.2373635   -2.1517615 
H    -9.7843091   -1.2373635   -2.1517615 
H    -8.2905775    5.3413572    2.1517615 
H    -6.6998537    7.2371081    2.1517615 
H    -6.6998537    7.2371081   -2.1517615 
H    -8.2905775    5.3413572   -2.1517615 
H    -8.2905775   -5.3413572    2.1517615 
H    -6.6998537   -7.2371081    2.1517615 
H    -6.6998537   -7.2371081   -2.1517615 
H    -8.2905775   -5.3413572   -2.1517615 
H    -2.9175926    9.4207975    2.1517615 
H    -0.4804623    9.8505293    2.1517615 
H    -0.4804623    9.8505293   -2.1517615 
H    -2.9175926    9.4207975   -2.1517615 
H     5.9637427    7.8547785   -2.1517615 
H     3.8205663    9.0921420   -2.1517615 
H     3.8205663    9.0921420    2.1517615 
H     5.9637427    7.8547785    2.1517615 
H     9.6174463    2.1836895    2.1517615 
H     8.7710398    4.5091721    2.1517615 
H     8.7710398    4.5091721   -2.1517615 
H     9.6174463    2.1836895   -2.1517615 
H    -2.9175926   -9.4207975   -2.1517615 
H    -0.4804623   -9.8505293   -2.1517615 
H    -0.4804623   -9.8505293    2.1517615 
H    -2.9175926   -9.4207975    2.1517615 
H     8.7710398   -4.5091721   -2.1517615 
H     9.6174463   -2.1836895   -2.1517615 
H     9.6174463   -2.1836895    2.1517615 
H     8.7710398   -4.5091721    2.1517615 
H     3.8205663   -9.0921420    2.1517615 
H     5.9637427   -7.8547785    2.1517615 
H     5.9637427   -7.8547785   -2.1517615 
H     3.8205663   -9.0921420   -2.1517615 

08_m1.wfx

