%nprocs=4
%mem=4GB
#p pbepbe aug-cc-pvtz output=wfx scf=(conver=6) int=(grid=ultrafine)

title

0 1
C    -3.8084247   -2.7490587    2.3035359 
C    -2.7515791   -2.3185848    1.4899998 
C    -1.5454063   -3.0455727    1.4900076 
C    -1.4322109   -4.1814171    2.3031147 
C    -2.4953136   -4.6088339    3.0952681 
C    -3.6895123   -3.8887260    3.0956306 
C    -0.3654541   -2.5947597    0.7069290 
C     0.7935226   -2.2220296    1.3820595 
C     1.9639419   -1.8128623    0.7249774 
C     1.9639419   -1.8128623   -0.7249774 
C     0.7935226   -2.2220296   -1.3820595 
C    -0.3654541   -2.5947597   -0.7069290 
C     3.1762512   -1.4588566    1.4734390 
C     4.1860488   -0.9033694    0.7151059 
C     4.1860488   -0.9033694   -0.7151059 
C     3.1762512   -1.4588566   -1.4734390 
C     5.5329160   -0.8566583   -1.1482367 
C     6.3643320   -0.8284310    0.0000000 
C     5.5329160   -0.8566583    1.1482367 
C     7.6650452   -1.3100916    0.0000000 
C     8.1794583   -1.6430256   -1.3088808 
C     7.3662217   -1.6712917   -2.4347431 
C     5.9548034   -1.3693364   -2.3683770 
C     4.8846182   -1.7688442   -3.2446225 
C     3.5607051   -1.8144719   -2.8149589 
C     8.1794583   -1.6430256    1.3088808 
C     7.3662217   -1.6712917    2.4347431 
C     5.9548034   -1.3693364    2.3683770 
C     4.8846182   -1.7688442    3.2446225 
C     3.5607051   -1.8144719    2.8149589 
C    -1.5454063   -3.0455727   -1.4900076 
C    -2.7515791   -2.3185848   -1.4899998 
C    -3.8084247   -2.7490587   -2.3035359 
C    -3.6895123   -3.8887260   -3.0956306 
C    -2.4953136   -4.6088339   -3.0952681 
C    -1.4322109   -4.1814171   -2.3031147 
C    -2.9028620   -1.0645303    0.7069688 
C    -3.1160417    0.1340670    1.3821967 
C    -3.3229570    1.3564833    0.7249645 
C    -3.3229570    1.3564833   -0.7249645 
C    -3.1160417    0.1340670   -1.3821967 
C    -2.9028620   -1.0645303   -0.7069688 
C    -3.4716160    2.6105286   -1.4732951 
C    -3.8540064    3.6981702   -0.7152121 
C    -3.8540064    3.6981702    0.7152121 
C    -3.4716160    2.6105286    1.4732951 
C    -3.6768268    5.0342612    1.1483508 
C    -3.5670141    5.8588832    0.0000000 
C    -3.6768268    5.0342612   -1.1483508 
C    -3.0539638    2.9302622   -2.8137090 
C    -2.8800174    4.2433731   -3.2434366 
C    -3.0994325    5.3648831   -2.3679098 
C    -2.5670881    6.7063960   -2.4342562 
C    -2.4607878    7.5131151   -1.3085379 
C    -2.8754518    7.0612728    0.0000000 
C    -3.0539638    2.9302622    2.8137090 
C    -2.8800174    4.2433731    3.2434366 
C    -3.0994325    5.3648831    2.3679098 
C    -2.5670881    6.7063960    2.4342562 
C    -2.4607878    7.5131151    1.3085379 
H     5.1152381   -2.1400016   -4.2405073 
H     2.8211917   -2.2243959   -3.4977560 
H     2.8211917   -2.2243959    3.4977560 
H     5.1152381   -2.1400016    4.2405073 
H     7.7937964   -2.0227244    3.3709852 
H     9.2110070   -1.9726946    1.4093522 
H     9.2110070   -1.9726946   -1.4093522 
H     7.7937964   -2.0227244   -3.3709852 
H    -2.1479001    7.0688890   -3.3700485 
H    -1.9635516    8.4752052   -1.4085416 
H    -1.9635516    8.4752052    1.4085416 
H    -2.1479001    7.0688890    3.3700485 
H    -2.4712194    4.4093653    4.2374102 
H    -2.7665331    2.1328658    3.4938495 
H    -2.7665331    2.1328658   -3.4938495 
H    -2.4712194    4.4093653   -4.2374102 
H     0.7792930   -2.2311874    2.4686241 
H     0.7792930   -2.2311874   -2.4686241 
H    -3.1250361    0.1161269    2.4687225 
H    -3.1250361    0.1161269   -2.4687225 
H    -0.4957640   -4.7328848   -2.3015246 
H    -2.3907546   -5.4989363   -3.7090760 
H    -4.5250630   -4.2115130   -3.7100998 
H    -4.7331467   -2.1782416   -2.3028586 
H    -0.4957640   -4.7328848    2.3015246 
H    -2.3907546   -5.4989363    3.7090760 
H    -4.5250630   -4.2115130    3.7100998 
H    -4.7331467   -2.1782416    2.3028586 

09_m1.wfx

