%nprocs=4
%mem=4GB
#p pbepbe aug-cc-pvtz output=wfx scf=(conver=6) int=(grid=ultrafine)

title

0 1
C    -2.4169652    0.0000000    3.2195260 
C    -1.2348879    0.0000000    3.9653920 
C    -0.3816013   -1.1744482    3.9653920 
C     0.9990453   -0.7258489    3.9653920 
C    -2.7860770   -1.1642712    2.4410551 
C    -0.7468833   -2.2986705    3.2195260 
C    -2.7860770    1.1642712    2.4410551 
C    -0.3816013    1.1744482    3.9653920 
C     0.9990453    0.7258489    3.9653920 
C    -0.7468833    2.2986705    3.2195260 
C     1.9553659   -1.4206565    3.2195260 
C    -1.9682329   -2.2899371    2.4410551 
C     0.2463426   -3.0094963    2.4410551 
C     1.9553659    1.4206565    3.2195260 
C     1.5696422   -2.5795302    2.4410551 
C     2.9383251   -0.6956998    2.4410551 
C    -3.3936684   -0.7191006    1.2063603 
C    -1.9682329    2.2899371    2.4410551 
C    -3.3936684    0.7191006    1.2063603 
C    -1.7326065   -3.0053562    1.2063603 
C    -0.3647959   -3.4497847    1.2063603 
C     2.3228587   -2.5765128    1.2063603 
C     3.1682121   -1.4129837    1.2063603 
C     2.9383251    0.6956998    2.4410551 
C    -3.2515324   -1.4551686    0.0000000 
C    -2.3887264   -2.6427193    0.0000000 
C     0.3791688   -3.5420629    0.0000000 
C     1.7752183   -3.0884590    0.0000000 
C     3.4858717   -0.7339466    0.0000000 
C     3.1682121    1.4129837    1.2063603 
C    -3.3936684   -0.7191006   -1.2063603 
C    -3.2515324    1.4551686    0.0000000 
C    -1.7326065   -3.0053562   -1.2063603 
C    -0.3647959   -3.4497847   -1.2063603 
C     2.3228587   -2.5765128   -1.2063603 
C     3.1682121   -1.4129837   -1.2063603 
C     3.4858717    0.7339466    0.0000000 
C    -2.7860770   -1.1642712   -2.4410551 
C    -3.3936684    0.7191006   -1.2063603 
C    -1.9682329   -2.2899371   -2.4410551 
C     0.2463426   -3.0094963   -2.4410551 
C     1.5696422   -2.5795302   -2.4410551 
C     2.9383251   -0.6956998   -2.4410551 
C     3.1682121    1.4129837   -1.2063603 
C     0.2463426    3.0094963    2.4410551 
C     1.5696422    2.5795302    2.4410551 
C    -1.7326065    3.0053562    1.2063603 
C     2.3228587    2.5765128    1.2063603 
C    -2.3887264    2.6427193    0.0000000 
C    -2.4169652    0.0000000   -3.2195260 
C    -2.7860770    1.1642712   -2.4410551 
C    -0.7468833   -2.2986705   -3.2195260 
C     1.9553659   -1.4206565   -3.2195260 
C     2.9383251    0.6956998   -2.4410551 
C     2.3228587    2.5765128   -1.2063603 
C    -0.3647959    3.4497847    1.2063603 
C     1.7752183    3.0884590    0.0000000 
C    -1.7326065    3.0053562   -1.2063603 
C    -1.2348879    0.0000000   -3.9653920 
C    -1.9682329    2.2899371   -2.4410551 
C    -0.3816013   -1.1744482   -3.9653920 
C     0.9990453   -0.7258489   -3.9653920 
C     1.9553659    1.4206565   -3.2195260 
C     1.5696422    2.5795302   -2.4410551 
C     0.3791688    3.5420629    0.0000000 
C    -0.3647959    3.4497847   -1.2063603 
C    -0.3816013    1.1744482   -3.9653920 
C    -0.7468833    2.2986705   -3.2195260 
C     0.9990453    0.7258489   -3.9653920 
C     0.2463426    3.0094963   -2.4410551 

10_m2.wfx

