%nprocs=4
%mem=4GB
#p pbepbe aug-cc-pvtz output=wfx scf=(conver=6) int=(grid=ultrafine)

title

0 1
C     0.1730206    0.6660643    1.3149479 
C    -1.1780527    0.6621611   -0.6136683 
C    -0.3964367   -0.5108888   -1.1937450 
C     0.9875095   -0.5068676    0.7817960 
N     0.9804817   -0.4406630   -0.6859453 
O    -1.1711471    0.6251240    0.8191077 
H     1.5364225   -1.2002302   -1.0738353 
H    -0.3769083   -0.4391367   -2.2871893 
H     2.0217055   -0.4320740    1.1367974 
H     0.0931397    0.6295960    2.4048211 
H    -2.2295910    0.6227776   -0.9107608 
H     0.5514716   -1.4464875    1.1691517 
H    -0.9076976   -1.4507339   -0.9136947 
H    -0.7337993    1.6086680   -0.9614263 
H     0.6498813    1.6126908    1.0136429 

13_m2.wfx

