%nprocs=4
%mem=4GB
#p pbepbe aug-cc-pvtz output=wfx scf=(conver=6) int=(grid=ultrafine)

title

0 1
C     1.0512081   -0.6154037    0.7150488 
C    -0.3237597   -0.6153280   -1.2294287 
C    -1.1316517    0.6267126   -0.8700999 
C     0.4432433    0.6267101    1.3568908 
S    -1.3266581    0.7929941    0.9381497 
O     1.0096050   -0.5654853   -0.7138826 
H     0.4920449    0.5574364    2.4480446 
H    -2.1441211    0.5572139   -1.2798020 
H    -0.6502012    1.5248385   -1.2713912 
H     0.9821701    1.5248245    1.0366653 
H     0.5284255   -1.5157604    1.0740048 
H    -0.8364672   -1.5157755   -0.8563187 
H    -0.2080202   -0.6914092   -2.3159564 
H     2.1141821   -0.6915681    0.9680757 

14_m2.wfx

