%nprocs=4
%mem=4GB
#p pbepbe aug-cc-pvtz output=wfx scf=(conver=6) int=(grid=ultrafine)

title

0 1
C     0.6831829    1.1833075    2.8360737 
C     1.4205479    0.0000000    2.8299102 
C     0.6831829   -1.1833075    2.8360737 
C    -0.7102740   -1.2302306    2.8299102 
C    -1.3663658    0.0000000    2.8360737 
C    -0.7102740    1.2302306    2.8299102 
C    -1.4510516    2.5132952    2.7378014 
C    -1.8371226    3.1819897    3.8977371 
C    -2.5333940    4.3879672    3.8492179 
C    -2.8521153    4.9400086    2.6117336 
C    -2.4722674    4.2820928    1.4425246 
C    -1.7774019    3.0785504    1.4915137 
C    -1.4510516   -2.5132952    2.7378014 
C    -1.7774019   -3.0785504    1.4915137 
C    -2.4722674   -4.2820928    1.4425246 
C    -2.8521153   -4.9400086    2.6117336 
C    -2.5333940   -4.3879672    3.8492179 
C    -1.8371226   -3.1819897    3.8977371 
C     2.9021033    0.0000000    2.7378014 
C     3.5548038    0.0000000    1.4915137 
C     4.9445348    0.0000000    1.4425246 
C     5.7042306    0.0000000    2.6117336 
C     5.0667881    0.0000000    3.8492179 
C     3.6742453    0.0000000    3.8977371 
F     1.3571174    2.3505963    2.8083633 
F    -2.7142348    0.0000000    2.8083633 
F     1.3571174   -2.3505963    2.8083633 
F    -1.5398781    2.6671472    5.1066321 
F    -2.8954473    5.0150618    4.9777769 
F    -3.5222378    6.1006948    2.5522111 
F    -2.8011159    4.8516750    0.2662597 
F    -2.8011159   -4.8516750    0.2662597 
F    -3.5222378   -6.1006948    2.5522111 
F    -2.8954473   -5.0150618    4.9777769 
F    -1.5398781   -2.6671472    5.1066321 
F     5.6022317    0.0000000    0.2662597 
F     7.0444755    0.0000000    2.5522111 
F     5.7908946    0.0000000    4.9777769 
F     3.0797563    0.0000000    5.1066321 
I    -1.2246796    2.1212074   -0.3138639 
I    -1.2246796   -2.1212074   -0.3138639 
I     2.4493593    0.0000000   -0.3138639 
C     2.1153117   -1.1970392   -3.5507988 
H     3.1366149   -1.1318166   -3.1637735 
H     2.1707909   -1.1840260   -4.6560983 
C     1.4212762   -2.4617226   -3.0792105 
H     1.9292609   -3.3415779   -3.4877208 
H     1.4561931   -2.5222005   -1.9866800 
C    -0.0209895   -2.4304333   -3.5507988 
H    -0.0599989   -2.4719730   -4.6560983 
H    -0.5881255   -3.2822965   -3.1637735 
C    -2.0943222   -1.2333940   -3.5507988 
H    -2.5484894   -2.1504799   -3.1637735 
H    -2.1107920   -1.2879470   -4.6560983 
C    -2.8425524    0.0000000   -3.0792105 
H    -2.9123863    0.0000000   -1.9866800 
H    -3.8585218    0.0000000   -3.4877208 
C    -2.0943222    1.2333940   -3.5507988 
H    -2.1107920    1.2879470   -4.6560983 
H    -2.5484894    2.1504799   -3.1637735 
C    -0.0209895    2.4304333   -3.5507988 
H    -0.5881255    3.2822965   -3.1637735 
H    -0.0599989    2.4719730   -4.6560983 
C     1.4212762    2.4617226   -3.0792105 
H     1.9292609    3.3415779   -3.4877208 
H     1.4561931    2.5222005   -1.9866800 
C     2.1153117    1.1970392   -3.5507988 
H     2.1707909    1.1840260   -4.6560983 
H     3.1366149    1.1318166   -3.1637735 
C     0.0000000    0.0000000   -3.5326112 
H     0.0000000    0.0000000   -4.6589036 
N     1.3959730    0.0000000   -3.0684339 
N    -0.6979865   -1.2089481   -3.0684339 
N    -0.6979865    1.2089481   -3.0684339 

16_di.wfx

