%nprocs=4
%mem=4GB
#p pbepbe aug-cc-pvtz output=wfx scf=(conver=6) int=(grid=ultrafine)

title

0 1
C     2.9460657    1.8593454   -7.3411662 
C     3.1606571    0.7240757   -8.1188032 
C     2.8430988   -0.5269532   -7.5956762 
C     2.3275954   -0.5959179   -6.2997280 
N     2.1308436    0.4934725   -5.5397175 
C     2.4266505    1.6976435   -6.0550905 
C     1.9551058   -1.9428798   -5.7251742 
O     2.0873517   -2.9775453   -6.3747380 
C     2.1655502    2.9201297   -5.2062696 
O     2.3935612    4.0531759   -5.6236127 
N     1.4699988   -1.8569908   -4.4534113 
C     1.0145697   -2.9173182   -3.6236892 
C    -0.0394110   -3.7485693   -4.0289411 
C    -0.4926255   -4.7248465   -3.1307878 
C     0.0565705   -4.8800373   -1.8583839 
C     1.1091842   -4.0313329   -1.4917303 
C     1.6006326   -3.0537379   -2.3506240 
C    -0.4541200   -5.9109578   -0.8369809 
C    -1.7610580   -6.5935382   -1.3087576 
C    -2.2123458   -7.7027439   -0.3540725 
C    -1.1444521   -8.7984327   -0.2689489 
C     0.1925940   -8.2056524    0.1886148 
C     0.6229045   -7.0205160   -0.6906343 
H    -1.0237855   -9.2597705   -1.2597736 
H    -1.4592072   -9.5928114    0.4179379 
C    -0.7063010   -5.1319872    0.4646990 
C    -1.7103718   -4.1550542    0.4794967 
C    -1.9285257   -3.3363213    1.5831529 
C    -1.1108203   -3.4999516    2.7175294 
C    -0.0888746   -4.4596127    2.7399775 
C     0.0867711   -5.2612341    1.6043106 
C    -3.0089955   -2.2847455    1.5631371 
N    -1.3003889   -2.6107068    3.8095871 
C    -1.5523074   -2.9371797    5.1098236 
O    -1.6701608   -4.0775577    5.5518646 
C     0.8360415   -4.6085636    3.9172036 
C    -0.7145295   -3.5804916   -5.3630914 
C     2.7275656   -2.1474583   -1.9237810 
C    -1.6709394   -1.7259724    6.0047286 
N    -1.4985929   -0.5130340    5.4550277 
C    -1.5637067    0.5667004    6.2506878 
C    -1.8214338    0.4788819    7.6203228 
C    -2.0144091   -0.7813542    8.1807746 
C    -1.9334007   -1.9066797    7.3643125 
C    -1.3257248    1.9237184    5.6310465 
O    -1.3381114    2.9503098    6.3060934 
N     1.6611879    2.6105002   -3.9774616 
C     1.2954789    3.5084829   -2.9382846 
C     0.3242722    4.4976984   -3.1485062 
C    -0.0461722    5.3004238   -2.0606202 
C     0.5048991    5.1354060   -0.7902817 
C     1.4734802    4.1373703   -0.6214510 
C     1.8811224    3.3213176   -1.6715336 
C     0.0818710    5.9713298    0.4298726 
C    -1.1526019    6.8542704    0.1255436 
C    -1.5091634    7.7745987    1.2966972 
C    -0.3458956    8.7250955    1.5995955 
C     0.9271707    7.9295410    1.9078288 
C     1.2547445    6.9222074    0.7939991 
H    -0.1742807    9.3717802    0.7268995 
H    -0.5928695    9.3824298    2.4415104 
C    -0.2513527    4.9631310    1.5420553 
C    -1.3427410    4.1029209    1.3647679 
C    -1.6433043    3.0936183    2.2740539 
C    -0.8201367    2.9368858    3.4054197 
C     0.2873802    3.7705953    3.6150342 
C     0.5439896    4.7742151    2.6717230 
C    -2.8180919    2.1756930    2.0487625 
N    -1.0985583    1.8583035    4.2875871 
C     1.2158434    3.5802389    4.7834157 
C    -0.3516926    4.6755837   -4.4809276 
C     2.9180322    2.2480167   -1.4567904 
H    -1.3411967   -1.6113464    3.6267634 
H     1.5386543   -0.9229336   -4.0574063 
H    -2.3231191   -4.0039178   -0.4056880 
H     0.9003560   -5.9790135    1.6220036 
H    -1.3219342   -5.3491578   -3.4475213 
H     1.5425031   -4.1191222   -0.4982091 
H    -3.6568561   -2.3624190    2.4433111 
H    -3.6252204   -2.3841684    0.6660968 
H    -2.5877398   -1.2700082    1.5613057 
H     1.1483581   -3.6292009    4.2974019 
H     1.7280688   -5.1730829    3.6317630 
H     0.3354546   -5.1254633    4.7426114 
H     3.5251889   -2.1219607   -2.6744313 
H     3.1515341   -2.4837996   -0.9742759 
H     2.3853641   -1.1130553   -1.7819729 
H    -0.8899215   -2.5210252   -5.5828170 
H    -1.6754773   -4.1022334   -5.3722973 
H    -0.0866287   -3.9726293   -6.1699172 
H    -2.5526179   -5.8473282   -1.4364110 
H    -1.5811563   -7.0399118   -2.2955408 
H    -2.3916652   -7.2809512    0.6438528 
H    -3.1638565   -8.1217360   -0.7021389 
H     0.0916919   -7.8853773    1.2318999 
H     0.9787426   -8.9702865    0.1661558 
H     0.8378096   -7.3861228   -1.7031292 
H     1.5584399   -6.5839725   -0.3216461 
H    -2.0605848   -2.9157951    7.7400134 
H    -2.2184060   -0.8856718    9.2424205 
H     2.9751004   -1.4477608   -8.1527869 
H     3.5647224    0.8137270   -9.1229463 
H    -1.2325781    0.9286696    3.8981090 
H     1.6444967    1.6116205   -3.7877270 
H    -1.9618085    4.1996595    0.4763131 
H     1.4216968    5.3926378    2.8283899 
H    -0.8135650    6.0490191   -2.2300063 
H     1.9051344    3.9754042    0.3634482 
H    -3.4606221    2.1264483    2.9348517 
H    -3.4169428    2.5190697    1.2016705 
H    -2.4945932    1.1492120    1.8276085 
H     1.4320976    2.5177925    4.9439461 
H     2.1588725    4.1061513    4.6101813 
H     0.7621803    3.9557001    5.7066351 
H     3.7157176    2.3082701   -2.2053587 
H     3.3634208    2.3384629   -0.4629326 
H     2.4822439    1.2421136   -1.5305536 
H    -0.6190031    3.7062477   -4.9173293 
H    -1.2621651    5.2709586   -4.3698798 
H     0.3155833    5.1717739   -5.1933707 
H    -2.0080235    6.2272967   -0.1480766 
H    -0.9234123    7.4796956   -0.7472256 
H    -1.7361041    7.1707055    2.1852950 
H    -2.4145877    8.3431375    1.0539061 
H     0.7882802    7.4069271    2.8610451 
H     1.7801227    8.6068324    2.0385880 
H     1.5103633    7.4718261   -0.1212149 
H     2.1433999    6.3344424    1.0521261 
H    -1.8582553    1.3928853    8.2025182 
H     3.1611182    2.8621138   -7.6930746 

17_m1.wfx

