%nprocs=4
%mem=4GB
#p pbepbe aug-cc-pvtz output=wfx scf=(conver=6) int=(grid=ultrafine)

title

0 1
C    -4.7681548    1.0551742    0.2580342 
C    -5.4048486    1.0089273   -1.1414563 
C    -5.7011888   -0.4441012   -1.5002301 
C    -6.5669211   -1.0951326   -0.4294443 
C    -5.9440215   -0.9092508    0.9618747 
O    -5.7239625    0.4760621    1.1904515 
O    -4.5208925    1.4951634   -2.1566448 
C    -4.7811795    2.7854950   -2.7016589 
C    -4.5432026    2.6940751   -4.2155564 
C    -3.0482674    2.5235616   -4.5054310 
C    -2.2300869    3.5518124   -3.7165769 
C    -2.5515612    3.4897195   -2.2225807 
O    -3.9701820    3.7724077   -2.0881846 
O    -0.8489722    3.2202290   -3.9728222 
C    -0.0012364    4.2522253   -4.4065950 
C     0.9534798    3.6869141   -5.4626468 
C     1.8958927    2.6783278   -4.8255830 
C     2.5845813    3.2924414   -3.6106092 
C     1.5266086    3.7918254   -2.6217413 
O     0.7579760    4.8018289   -3.3289322 
O     3.4096047    2.2430020   -3.0697038 
C     4.7463881    2.5647620   -2.7687951 
C     5.6337990    1.3891010   -3.2018872 
C     5.3712507    0.1665334   -2.3325656 
C     5.4831008    0.5257032   -0.8535463 
C     4.5287467    1.6932417   -0.5514143 
O     4.9367408    2.8145723   -1.3855575 
O     5.1344864   -0.6600498   -0.1324498 
C     5.9525374   -1.0314254    0.9727391 
C     6.1318594   -2.5551606    0.9049087 
C     4.8028329   -3.2449126    1.2243879 
C     4.1988874   -2.6656442    2.5074930 
C     4.0453109   -1.1469223    2.4074328 
O     5.3794651   -0.6102544    2.1977065 
O     2.9269220   -3.3303090    2.6622317 
C     2.6306133   -3.8815333    3.9209061 
C     1.9225466   -5.2272282    3.7074206 
C     0.5518175   -5.0169883    3.0773128 
C    -0.2606946   -4.0075107    3.8826164 
C     0.5479073   -2.7061008    4.0101955 
O     1.7903663   -3.0333634    4.6933862 
O    -1.4838297   -3.8153022    3.1638992 
C    -2.6992396   -3.8474643    3.9048492 
O    -3.1390204   -2.5390998    4.2258562 
C    -3.3429389   -1.7098568    3.0495966 
C    -4.4749615   -2.3596358    2.2520364 
C    -4.1052245   -3.7845084    1.8288937 
C    -3.7229427   -4.6159114    3.0566429 
C    -3.5941534   -0.2797831    3.5521420 
O    -2.5898181    0.6429205    3.1175292 
O    -3.2363968   -5.9122407    2.7497483 
O    -5.2120411   -4.3972327    1.1741186 
O    -4.7522085   -1.6532611    1.0241020 
O    -0.1845506   -6.2443415    3.0348306 
O     2.6639590   -6.0992708    2.8280499 
C    -0.1120670   -1.5647885    4.7989513 
O    -0.2103378   -0.3576814    4.0368662 
O     5.0248796   -4.6430941    1.3821020 
O     6.6939100   -2.9291591   -0.3422836 
C     3.4667505   -0.4342954    3.6390498 
O     2.3299663    0.3771751    3.3248846 
O     6.3197073   -0.8698189   -2.6101270 
O     5.3856390    1.0041335   -4.5734838 
C     4.5044750    2.2001361    0.8986873 
O     3.1877213    2.2002598    1.4576958 
O     2.8432225    2.2841491   -5.8229099 
O     0.1755525    3.1052973   -6.5132998 
C     2.0450815    4.4307277   -1.3231040 
O     1.6022276    3.7300300   -0.1571798 
O    -2.8289948    2.6905625   -5.9003109 
O    -5.3614491    1.6808492   -4.7790313 
C    -1.8089660    4.4896837   -1.3244273 
O    -1.1218077    3.8539237   -0.2390770 
O    -6.3630611   -0.4610432   -2.7696091 
O    -6.7031106   -2.4878294   -0.7839451 
C    -4.4052950    2.4465333    0.7983243 
O    -3.0368231    2.5397669    1.2071295 
H     3.2825002   -6.6239073    3.3598032 
H     0.3594248   -6.8770099    2.5355280 
H     6.2851318   -2.3697837   -1.0336974 
H     4.1599430   -5.0327613    1.6195104 
H     6.0025193    1.4864283   -5.1454479 
H     6.2312579   -1.0834637   -3.5543646 
H     0.7889364    2.5781625   -7.0534444 
H     3.4800268    1.6819586   -5.3868384 
H    -5.3717097    0.9263477   -4.1561007 
H    -1.8631735    2.6428132   -6.0506134 
H    -7.5599576   -2.8081095   -0.4616726 
H    -6.5594609   -1.3926074   -2.9670829 
H    -2.2743207   -5.8397963    2.5848773 
H    -5.4493674   -3.8097016    0.4290900 
H     3.5445342   -3.9999620    4.5152267 
H     1.7894350   -5.7046491    4.6860827 
H     0.6842310   -4.6189518    2.0611155 
H    -0.4773346   -4.4131499    4.8808917 
H     0.7802902   -2.3382034    3.0044205 
H     6.9220972   -0.5263330    0.9089823 
H     6.8587412   -2.8466780    1.6720899 
H     4.0958914   -3.0548024    0.4017438 
H     4.8439593   -2.9172311    3.3609842 
H     3.4194033   -0.9062358    1.5403672 
H     5.0410538    3.4928315   -3.2733538 
H     6.6827056    1.6856166   -3.0813033 
H     4.3497509   -0.1936255   -2.5209895 
H     6.5165949    0.8145822   -0.6155932 
H     3.5112127    1.3954023   -0.8284492 
H    -0.5806267    5.0898406   -4.8085734 
H     1.5487641    4.5242111   -5.8559005 
H     1.3132101    1.8091658   -4.4866762 
H     3.2216427    4.1314338   -3.9234983 
H     0.8653937    2.9596549   -2.3542116 
H    -5.8153814    3.0787093   -2.4920985 
H    -4.8670117    3.6391641   -4.6668960 
H    -2.7334110    1.5206419   -4.1751299 
H    -2.4393681    4.5594822   -4.1013166 
H    -2.3499020    2.4767561   -1.8551189 
H    -6.6353458   -1.2244628    1.7527360 
H    -7.5503800   -0.6090814   -0.4320163 
H    -4.7454960   -0.9840046   -1.5631667 
H    -6.3358690    1.5932334   -1.1493998 
H    -3.8605056    0.4407733    0.2499851 
H    -2.5404728   -4.3499415    4.8648610 
H    -4.6259392   -4.7583349    3.6620691 
H    -3.2380118   -3.7255105    1.1528805 
H    -5.3869526   -2.3875648    2.8650629 
H    -2.4286914   -1.7113784    2.4446684 
H     5.1020108    1.5564713    1.5453948 
H     4.9302572    3.2117728    0.9098748 
H     2.5953721    2.7776095    0.9071622 
H     3.1198605   -1.1572606    4.3788376 
H     4.2642624    0.1737564    4.0851065 
H     2.5969003    1.0679776    2.6639964 
H    -1.1343741   -1.8257505    5.0763130 
H     0.4742868   -1.4005753    5.7120870 
H     0.6981838   -0.0487716    3.7806861 
H    -4.5389395    0.1082445    3.1682700 
H    -3.6425297   -0.3097963    4.6482424 
H    -1.7050842    0.3380858    3.4482043 
H     3.1360305    4.4141565   -1.2855548 
H     1.7063801    5.4743656   -1.3003840 
H    -4.5367116    3.2076946    0.0284899 
H    -5.0753922    2.6682650    1.6388596 
H    -2.8545574    1.8727700    1.9205628 
H    -1.0442079    5.0235925   -1.8905579 
H    -2.5396462    5.2153129   -0.9452119 
H    -1.7829332    3.3745524    0.3264286 
H     0.6086665    3.7598111   -0.1205109 

20_m1.wfx

