%nprocs=4
%mem=4GB
#p pbepbe aug-cc-pvtz output=wfx scf=(conver=6) int=(grid=ultrafine)

title

0 1
O    -4.3633769    0.0503410   -3.0815619 
O    -2.7054801    3.4074754   -3.0885905 
O     1.1151072    4.2718376   -3.0544691 
O     4.0972772    2.0085206   -3.1061994 
O     3.6807203   -1.7381529   -2.9877268 
O     0.8783428   -4.3013879   -3.1583656 
O    -2.7735252   -3.3863565   -3.1011808 
O    -4.3736677    0.0149600    3.1457877 
O    -2.7154762    3.4555735    3.1782361 
O     0.9199240    4.1800637    3.1967861 
O     3.9158556    1.7104076    3.1529252 
O     4.0480133   -1.9960343    3.1723476 
O     0.9527700   -4.1989669    3.1064102 
O    -2.7554236   -3.3281267    3.1237617 
N    -5.1583183   -1.0657377   -1.1985399 
N    -5.1471506    1.1720516   -1.1969393 
N    -4.0759122    3.3638494   -1.2069079 
N    -2.2493265    4.6553513   -1.1743476 
N     0.1287385    5.1555930   -1.1361940 
N     2.3365544    4.7798590   -1.1378190 
N     4.2562672    3.2711450   -1.1543462 
N     5.1496248    1.2218654   -1.1835354 
N     5.0663270   -1.2137664   -1.1946201 
N     4.0305710   -3.1982157   -1.2095103 
N     2.1505881   -4.7502718   -1.2610012 
N    -0.0288482   -5.2449182   -1.2312789 
N    -2.4041118   -4.7039118   -1.2174806 
N    -4.1210828   -3.2704861   -1.2045796 
N    -5.1969223   -1.0809016    1.2633885 
N    -5.1352458    1.1540580    1.2631137 
N    -4.0241357    3.3192752    1.2556869 
N    -2.3021699    4.7474515    1.2857465 
N     0.0807310    5.2806492    1.3243656 
N     2.2202305    4.6290911    1.3158090 
N     4.1166979    3.1107079    1.3020866 
N     5.1681672    1.1361183    1.2768871 
N     5.1805123   -1.3010825    1.2593586 
N     4.1682368   -3.2933920    1.2423569 
N     2.1878614   -4.7137414    1.1992696 
N     0.0026738   -5.2020892    1.2317768 
N    -2.3700435   -4.6445284    1.2414261 
N    -4.1465082   -3.2847326    1.2568600 
C    -5.8540302   -0.7284289    0.0245815 
C    -5.8293726    0.8380016    0.0336803 
C    -3.0553604   -3.7323614   -1.9723039 
C    -1.3411936   -5.5036334   -1.7825459 
C    -4.1989706    4.0853317    0.0381463 
C    -2.9562276    5.0375344    0.0306804 
C     0.9823370   -4.7010872   -2.0170697 
C     3.4183518   -4.3589953   -1.8271227 
C     0.5861760    5.8042361    0.0774494 
C     2.1082711    5.4447454    0.1225567 
C     4.1895805   -2.0121317   -1.9150185 
C     5.6296992   -0.0063594   -1.7675093 
C     4.9432431    3.1843512    0.1135786 
C     5.6266655    1.7760126    0.0650309 
C     4.4410896    2.1452537   -1.9514999 
C     5.5793464   -1.8678550   -0.0091063 
C     4.8623086   -3.2606627   -0.0245665 
C    -5.1195606   -2.3917125   -1.7737248 
C    -4.8179964    0.0524369   -1.9561852 
C     1.9909289   -5.4710580   -0.0179018 
C     0.4630146   -5.8138741    0.0045390 
C    -5.0933849    2.5024361   -1.7651917 
C    -2.9685182    3.7537737   -1.9558513 
C    -3.0756754   -4.9980606    0.0277583 
C    -4.2986942   -4.0194365    0.0216430 
C    -1.1592434    5.4167433   -1.7422924 
C     1.1830777    4.6707586   -1.9112560 
C    -5.1541569   -2.4139006    1.8214868 
C    -4.8301854    0.0275663    2.0202924 
C     3.6416646    4.4708194   -1.6805374 
C    -3.0463341   -3.6942975    2.0033269 
C    -1.3008607   -5.4307719    1.8162394 
C    -5.0512008    2.4796565    1.8328513 
C    -2.9716850    3.7883353    2.0389449 
C     1.0335209   -4.6367020    1.9772084 
C     3.4879593   -4.4500041    1.7790980 
C    -1.2371821    5.5419813    1.8579953 
C     1.0523752    4.6268047    2.0756542 
C     4.4069070   -2.1678331    2.0255188 
C     5.7216877   -0.0830339    1.8217383 
C     3.4829027    4.2577881    1.9132529 
C     4.3353582    1.9505848    2.0387395 
H    -6.8708782   -1.1502433    0.0060088 
H     5.4722427   -0.0976822    2.8865765 
H     3.2737045    3.9889805    2.9526888 
H     4.1723400    5.1159752    1.8672239 
H     6.8123159   -0.0729850    1.6785818 
H     4.1243916   -5.3377174    1.6436248 
H    -1.4713830    6.6070017    1.7158169 
H    -1.1998292    5.2934342    2.9222057 
H     3.3279340   -4.2495870    2.8423658 
H    -1.5512211   -6.4986922    1.7236556 
H    -6.0270528    2.9780966    1.7252200 
H    -4.7976192    2.3540626    2.8893588 
H    -1.2281428   -5.1422775    2.8686981 
H     3.5051065    4.3049070   -2.7529643 
H    -4.9122679   -2.3004292    2.8819561 
H    -6.1402517   -2.8852449    1.6965275 
H     4.3112195    5.3248082   -1.5017199 
H    -5.2717114   -4.5345671    0.0090851 
H    -1.3875321    6.4914722   -1.6588605 
H    -3.3648588   -6.0601218    0.0571447 
H    -1.0797583    5.1222053   -2.7927773 
H     0.2583005   -6.8957322    0.0256075 
H    -6.0757052    2.9820323   -1.6418473 
H     2.6386422   -6.3619158   -0.0116708 
H    -4.8531325    2.3816738   -2.8253191 
H     5.5565695   -4.1112530   -0.1007695 
H    -6.1108983   -2.8578859   -1.6664108 
H     6.6761437   -1.9371129   -0.0660322 
H    -4.8634669   -2.2693031   -2.8301127 
H     6.7269064    1.8241104    0.0615382 
H     5.3357547    0.0182073   -2.8207206 
H     5.6606432    4.0144066    0.2088733 
H     6.7249794   -0.0583842   -1.6730233 
H     2.7636569    6.3258226    0.2071926 
H     4.1251380   -5.2000374   -1.7610278 
H     0.3934945    6.8870151    0.0204086 
H     3.2225616   -4.1024717   -2.8721238 
H    -3.2236618    6.1049995   -0.0140608 
H    -1.2884053   -5.2528937   -2.8458163 
H    -5.1606293    4.6212038    0.0683469 
H    -1.5847728   -6.5680692   -1.6465767 
H    -6.8326526    1.2914023    0.0414636 
C    -0.7333411    0.7768730   -1.4963019 
C     1.5318870    0.6844524   -0.4300513 
C     0.3312433   -1.4340656   -1.0133312 
C    -0.4455244    1.4456060    0.9091679 
C    -1.6479275   -0.6814333    0.3375941 
C     0.6231181   -0.7786146    1.3972591 
C     0.5954999    0.0146728   -1.4526863 
C    -1.3859916    0.7695360   -0.1028134 
C     0.8856158    0.6758717    0.9680522 
C    -0.3171173   -1.4514151    0.3828467 
O     1.1321012    0.0759485   -2.7792786 
H     1.9221981   -0.4920130   -2.8336852 
H    -2.3369932    1.3146362   -0.1424192 
H     1.5513276    1.1540795    1.6954370 
H    -0.5061417   -2.4878757    0.6861968 
H    -0.5396356    1.8014640   -1.8343731 
H    -1.3872903    0.3083328   -2.2405459 
H    -0.3114611   -1.9161133   -1.7592766 
H     1.7342905    1.7110319   -0.7580579 
H    -0.9050570    1.4765505    1.9041649 
H    -2.1140693   -0.6961944    1.3305118 
H     0.1792482   -0.8054815    2.3990921 
H    -2.3386893   -1.1649629   -0.3640561 
H    -0.2612145    2.4825156    0.5983023 
H     2.4906157    0.1466617   -0.4064837 
H     1.2838481   -1.9817145   -0.9881437 
H     1.5715472   -1.3279554    1.4530430 

21_di.wfx

