%nprocs=4
%mem=4GB
#p pbepbe aug-cc-pvtz output=wfx scf=(conver=6) int=(grid=ultrafine)

title

0 1
C    -0.4255333    0.5841084    0.3149401 
C     1.0785724    0.3281421   -0.0022550 
C     0.4735694    2.5231913   -0.7116129 
C     1.6670321    1.7497496   -0.1506367 
C     2.5123310   -2.3838974    2.0100284 
C     3.4771996    3.1865161    2.7248322 
C     0.5715754   -2.5282421    0.4156774 
C    -4.1280519   -1.8148081   -2.3095243 
C     4.4220365    1.6443360    0.9792065 
C     2.8991720   -2.0722729   -0.4629588 
C     3.6328936    3.9647724    0.3316254 
C    -2.8346931   -1.2625833   -2.9089859 
C     1.9229094   -1.8652202    0.7000351 
C     3.4134068    2.7638431    1.2582200 
C     0.3769319    2.4848102   -2.2355948 
C    -2.8511457   -1.2222551   -4.4396140 
C    -1.5604432   -0.6340351   -5.0183075 
C    -1.8539856   -0.2983716    2.1594625 
C    -1.7958166   -0.2650267    3.5511253 
C    -0.1164410    0.8729879    2.8645394 
N    -0.7748765    0.4336225    1.7156918 
C    -3.6791533   -1.5836909    2.0165752 
N    -3.7193879   -1.6158966    3.3841495 
N    -4.6605247   -2.2809186    1.3473931 
N    -4.0347398   -1.7780034   -0.8555839 
C    -2.7957820   -0.9714962    4.3011133 
C    -4.8904869   -2.4433113   -0.0554979 
N    -2.7504439   -0.9228911    1.3550445 
N    -0.7021465    0.4780962    3.9698665 
O     2.0433242    2.2706107    1.1154417 
O     1.7693313   -0.4313157    0.9551962 
O    -0.7145224    1.8983143   -0.1614227 
O     1.5362858    3.1574178   -2.7489023 
O    -5.8218010   -3.1571162   -0.4111777 
O    -2.9740864   -1.1101564    5.4997931 
H    -3.3258301   -1.2073827   -0.3858376 
H    -5.3434189   -2.7956309    1.8890758 
H    -4.4528759   -2.1321520    3.8603190 
H    -1.0744917   -0.1223982   -0.2078388 
H     1.1151907   -0.1485267   -0.9900795 
H     2.5042444    1.7536230   -0.8517941 
H     1.4361989    3.2493819   -3.7081459 
H     0.4933032    3.5589233   -0.3640190 
H     0.7809468    1.4674079    2.7828016 
H    -2.6667394   -0.2464647   -2.5230416 
H    -4.3021585   -2.8482465   -2.6274762 
H    -1.9908219   -1.8769458   -2.5653528 
H    -3.7100056   -0.6279884   -4.7776906 
H    -3.0021068   -2.2372816   -4.8292706 
H    -4.9883012   -1.2226160   -2.6503692 
H    -0.1300222   -2.3461691    1.2338748 
H    -0.5495364    2.9868647   -2.5435121 
H     0.3384076    1.4418458   -2.5874937 
H     4.1960714    0.7747630    1.6008745 
H     1.8218707   -2.1899024    2.8355361 
H     0.1286780   -2.1609200   -0.5167676 
H     3.4594018   -1.8794642    2.2232647 
H     0.7058253   -3.6096149    0.3098770 
H     3.8527555   -1.5817949   -0.2472607 
H     3.3106446    2.3239744    3.3770524 
H     3.5118116    3.6901524   -0.7211789 
H     2.7098059    3.9375397    2.9344821 
H     5.4344353    1.9954359    1.2051886 
H     2.9171397    4.7588606    0.5661376 
H     2.6957724   -3.4609520    1.9452060 
H     4.4583884    3.6139645    2.9539786 
H     4.4072077    1.3353489   -0.0713083 
H     3.0813259   -3.1407141   -0.6184310 
H     4.6458720    4.3600849    0.4630901 
H     2.5013977   -1.6667213   -1.4001587 
H    -1.4096264    0.3940631   -4.6674521 
H    -0.6884391   -1.2238654   -4.7115725 
H    -1.5848312   -0.6154918   -6.1125901 

22_m2.wfx

