%nprocs=4
%mem=4GB
#p pbepbe aug-cc-pvtz output=wfx scf=(conver=6) int=(grid=ultrafine)

title

2 1
C     1.0361654   -0.5757721    0.8630875 
C    -1.1526460    0.6094623    0.6708773 
C    -1.0361640    0.5757742   -0.8630880 
C     1.1526478   -0.6094604   -0.6708774 
C    -0.2644690   -0.6936266   -1.2645610 
C     0.2644703    0.6936289    1.2645611 
C     1.0969799    1.9000723   -0.7757524 
C    -1.0969792   -1.9000720    0.7757530 
C    -0.9761241   -1.9624834   -0.7545046 
C     0.9761214    1.9624876    0.7545043 
C     0.3076493   -1.8266124    1.3936524 
C    -0.3076461    1.8266121   -1.3936560 
C    -1.8924632   -0.6468690    1.1720607 
C     1.8924671    0.6468709   -1.1720569 
C    -1.7234178   -3.3424004    2.8083624 
C     1.7235637    3.3423023   -2.8083835 
C    -1.2835499   -4.4616761    0.6886690 
C     1.2834315    4.4616877   -0.6888019 
C    -3.3254774   -3.1634466    0.9804833 
C     3.3254451    3.1635267   -0.9803292 
N     1.8500496    3.2042535   -1.3081350 
N    -1.8500496   -3.2042536    1.3081349 
H     2.0380557   -0.5556751    1.3081495 
H    -2.0380541    0.5556768   -1.3081503 
H    -0.2042544   -0.7577032   -2.3575945 
H     0.2042551    0.7577054    2.3575946 
H    -1.7334820    1.4872884    0.9784195 
H     1.7334837   -1.4872868   -0.9784190 
H     0.2503653   -1.7522096    2.4834955 
H    -0.2503591    1.7522048   -2.4834989 
H    -2.8890433   -0.6592484    0.7212302 
H     2.8890451    0.6592505   -0.7212215 
H    -0.3882287   -2.8317559   -1.0636955 
H     0.3882218    2.8317585    1.0636924 
H     1.9621600    2.0357938    1.2260723 
H    -1.9621633   -2.0357827   -1.2260719 
H    -0.8954932    2.7171476   -1.1454630 
H     0.8954980   -2.7171451    1.1454532 
H     2.0132159    0.5830711   -2.2591136 
H    -2.0132058   -0.5830662    2.2591178 
H    -0.6989614   -3.6085118    3.0608983 
H     0.6991249    3.6083706   -3.0610376 
H    -3.8111534   -2.4095152    1.5968404 
H     3.8112179    2.4095893   -1.5966035 
H    -1.5660988   -4.5055744   -0.3612926 
H     1.5658846    4.5056680    0.3611824 
H     2.0101084    2.4051208   -3.2829450 
H    -2.0098921   -2.4052424    3.2830129 
H     0.2002469    4.4629712   -0.8002863 
H    -0.2003555   -4.4630233    0.8000575 
H     3.4545195    2.9426374    0.0781162 
H    -3.4546526   -2.9425071   -0.0779393 
H    -2.3996527   -4.1379457    3.1234726 
H     2.3998097    4.1378447   -3.1234778 
H    -1.7107355   -5.3119786    1.2215738 
H     1.7106206    5.3119777   -1.2217242 
H    -3.7396580   -4.1469365    1.2056382 
H     3.7396058    4.1470254   -1.2054829 

24_m2.wfx

