%nprocs=4
%mem=4GB
#p pbepbe aug-cc-pvtz output=wfx scf=(conver=6) int=(grid=ultrafine)

title

4 1
N    -0.1567458    3.2115868    7.9168069 
N     0.0708923    3.3694918   -7.7091559 
C    -0.0117599   -2.9962958    9.3205092 
H     0.8851119   -3.4510653    9.7446273 
H    -0.8890203   -3.4501692    9.7848119 
C    -0.0154255   -1.4887187    9.4516569 
C     1.1427012   -0.7567840    9.1575953 
H     2.0731154   -1.2702289    8.9290345 
C     1.1169672    0.6324218    9.1690066 
H     2.0275751    1.1837356    8.9490351 
C    -0.0673075    1.3159721    9.4749936 
C    -1.2080565    0.5873483    9.8201948 
H    -2.1197147    1.1022264   10.1117885 
C    -1.1822674   -0.8086153    9.8084695 
H    -2.0742232   -1.3616695   10.0909697 
C    -0.1193895    2.8245815    9.3692031 
H    -1.0122185    3.2378800    9.8416578 
H     0.7606124    3.3048354    9.8004517 
C     0.9690769    3.6240314    7.2824937 
H     1.8323834    3.8098250    7.9104578 
C     0.9915232    3.7953771    5.9157231 
H     1.9092469    4.1486962    5.4610186 
C    -0.1565242    3.5411023    5.1357910 
C    -1.3226577    3.1755284    5.8429148 
H    -2.2521874    2.9804883    5.3218303 
C    -1.2972934    3.0117797    7.2074672 
H    -2.1630277    2.6963579    7.7772157 
C    -0.1375299    3.6232376    3.6750543 
C     1.0634685    3.4368856    2.9659224 
H     1.9839585    3.2198928    3.4970693 
C     1.0801230    3.4598456    1.5814075 
H     2.0137014    3.2661742    1.0643518 
C    -0.0952635    3.6863459    0.8433267 
C    -1.2923620    3.8916909    1.5549078 
H    -2.2075965    4.1215112    1.0196206 
C    -1.3159289    3.8547164    2.9398058 
H    -2.2508689    4.0575792    3.4527931 
C    -0.0708913    3.7067966   -0.6307408 
C     1.0934738    4.0722772   -1.3324137 
H     1.9727678    4.4014383   -0.7886906 
C     1.1250941    4.0667676   -2.7174794 
H     2.0302125    4.3915597   -3.2208724 
C    -0.0146363    3.7098740   -3.4634974 
C    -1.1857676    3.3669486   -2.7626061 
H    -2.0727812    3.0523414   -3.3019749 
C    -1.2101231    3.3589400   -1.3779779 
H    -2.1135933    3.0390914   -0.8711138 
C     0.0200286    3.6585839   -4.9251377 
C     1.2262260    3.4622481   -5.6313162 
H     2.1712702    3.3798361   -5.1087512 
C     1.2262184    3.3153259   -6.9980539 
H     2.1283190    3.1273627   -7.5675802 
C    -1.1008327    3.6245237   -7.0746628 
H    -1.9789457    3.7044958   -7.7043088 
C    -1.1489903    3.7747568   -5.7069212 
H    -2.1054714    4.0009132   -5.2512589 
N     0.2259583   -3.2324625   -7.7645430 
N    -0.0339365   -3.3594695    7.8616414 
C     0.0810925    2.9926510   -9.1640789 
H    -0.8127033    3.4311223   -9.6109966 
H     0.9615704    3.4548016   -9.6136364 
C     0.1055569    1.4842646   -9.2857159 
C    -1.0732448    0.7461276   -9.1207080 
H    -2.0263143    1.2541696   -8.9990035 
C    -1.0395599   -0.6441010   -9.1323276 
H    -1.9669453   -1.1995079   -9.0194818 
C     0.1735703   -1.3214438   -9.3090714 
C     1.3422716   -0.5854422   -9.5229229 
H     2.2823858   -1.0945910   -9.7182445 
C     1.3084364    0.8093975   -9.5115078 
H     2.2226949    1.3666004   -9.6983464 
C     0.2221319   -2.8310876   -9.2128626 
H     1.1253472   -3.2422228   -9.6667846 
H    -0.6479520   -3.3048811   -9.6703863 
C    -0.9351245   -3.5477862   -7.1375182 
H    -1.8075179   -3.6555576   -7.7709012 
C    -0.9798128   -3.7215574   -5.7724746 
H    -1.9267951   -3.9958252   -5.3234022 
C     0.1814586   -3.5677262   -4.9857067 
C     1.3796805   -3.3087461   -5.6851528 
H     2.3191063   -3.1943247   -5.1585031 
C     1.3763443   -3.1399606   -7.0493811 
H     2.2706874   -2.9040307   -7.6132799 
C     0.1456626   -3.6437248   -3.5251612 
C    -1.0407188   -3.3621739   -2.8225455 
H    -1.9386398   -3.0762997   -3.3598253 
C    -1.0690248   -3.3782347   -1.4379975 
H    -1.9867138   -3.1055786   -0.9290100 
C     0.0820542   -3.6899454   -0.6930283 
C     1.2627239   -3.9940519   -1.3967671 
H     2.1536425   -4.2947130   -0.8554767 
C     1.2975372   -3.9643718   -2.7814206 
H     2.2167308   -4.2424527   -3.2873075 
C     0.0535373   -3.6962317    0.7811330 
C    -1.1342565   -3.9684521    1.4857723 
H    -2.0372397   -4.2294112    0.9439496 
C    -1.1615584   -3.9586571    2.8712064 
H    -2.0870006   -4.2132791    3.3783470 
C     0.0043354   -3.6886918    3.6131314 
C     1.1965782   -3.4341026    2.9105441 
H     2.1050248   -3.1847456    3.4481707 
C     1.2161905   -3.4298090    1.5259390 
H     2.1404269   -3.1831701    1.0146629 
C    -0.0193086   -3.6360144    5.0751914 
C    -1.1996743   -3.3313976    5.7874903 
H    -2.1359536   -3.1641191    5.2687739 
C    -1.1813629   -3.1923415    7.1549570 
H    -2.0592232   -2.9224655    7.7295568 
C     1.1077092   -3.7150216    7.2211669 
H     1.9773740   -3.8780915    7.8466721 
C     1.1376173   -3.8592716    5.8514504 
H     2.0686752   -4.1674553    5.3909363 
C     0.0344853    0.0222592   -2.0954355 
C    -0.0844877    0.0084209   -0.6394090 
C    -1.1487839    0.0016316   -2.8902817 
C     0.8823578    0.0082985    1.6156356 
C    -0.4341520   -0.0216374    2.1954814 
C    -1.4011675   -0.0228025   -0.0514397 
C    -1.5434018   -0.0361919    1.3363776 
C     1.0165988    0.0228831    0.2146992 
C    -1.0451029    0.0132831   -4.2979859 
C     1.2765495    0.0551128   -2.7609606 
C     2.0097758    0.0214623    2.4840505 
C    -0.5621924   -0.0363600    3.6134051 
C    -2.5579383   -0.0412086   -0.9032529 
C    -2.4379554   -0.0305003   -2.2564827 
C     1.3569019    0.0668045   -4.1454195 
C     0.1883446    0.0454290   -4.9237708 
C     0.5496452   -0.0230815    4.4208051 
C     1.8494481    0.0059313    3.8499665 
H     2.0235591    0.0452355   -0.1913503 
H     2.1970045    0.0722288   -2.1872189 
H    -2.5447374   -0.0595374    1.7612111 
H    -3.5395407   -0.0650244   -0.4368572 
H    -3.3235417   -0.0466416   -2.8870593 
H    -1.9601452   -0.0043651   -4.8858099 
H     3.0060897    0.0436834    2.0493105 
H    -1.5607159   -0.0585622    4.0440618 
H     2.3314325    0.0924135   -4.6250369 
H     2.7211963    0.0157688    4.4982138 
H     0.4405075   -0.0347492    5.5025574 
H     0.2517685    0.0540005   -6.0086901 

25_di.wfx

