%nprocs=4
%mem=4GB
#p pbepbe aug-cc-pvtz output=wfx scf=(conver=6) int=(grid=ultrafine)

title

0 1
C     1.6021554   -0.8416963    0.0000000 
C     0.3302433   -0.1248796    0.0000000 
C     2.8183654   -0.0994071    0.0000000 
C    -2.1215864   -0.0697562    0.0000000 
C    -2.1030043    1.3692511    0.0000000 
C     0.3432448    1.3174920    0.0000000 
C    -0.8603894    2.0216052    0.0000000 
C    -0.9031190   -0.7718170    0.0000000 
C     4.0522550   -0.7834124    0.0000000 
C     1.6850611   -2.2488229    0.0000000 
C    -3.3785974   -0.7374076    0.0000000 
C    -3.3405821    2.0725289    0.0000000 
C     1.6003772    2.0119343    0.0000000 
C     2.7789488    1.3374916    0.0000000 
C     2.9072829   -2.9012299    0.0000000 
C     4.1029761   -2.1656579    0.0000000 
C    -4.5347436    1.3937764    0.0000000 
C    -4.5540228   -0.0263057    0.0000000 
H    -0.9504600   -1.8568515    0.0000000 
H     0.7768496   -2.8425421    0.0000000 
H    -0.8335959    3.1096873    0.0000000 
H     1.5838321    3.0991037    0.0000000 
H     3.7240330    1.8752112    0.0000000 
H     4.9699009   -0.1998102    0.0000000 
H    -3.3909269   -1.8248056    0.0000000 
H    -3.3223001    3.1597192    0.0000000 
H     2.9378362   -3.9870777    0.0000000 
H    -5.5068452   -0.5480148    0.0000000 
H    -5.4731272    1.9410849    0.0000000 
H     5.0599383   -2.6793912    0.0000000 

25_m2.wfx

