%nprocs=4
%mem=4GB
#p pbepbe aug-cc-pvtz output=wfx scf=(conver=6) int=(grid=ultrafine)

title

1 1
C     5.0508146   -0.7835356    0.0009014 
C     5.0508146    0.7835356   -0.0009014 
N     4.3030341    1.1188813   -1.1982182 
C     4.0381338    0.0016892   -1.9908658 
N     4.4397300   -1.1153298   -1.2642254 
N     4.3030341   -1.1188813    1.1982182 
C     4.0381338   -0.0016892    1.9908658 
N     4.4397300    1.1153298    1.2642254 
O     3.5886051   -0.0058923    3.1177099 
O     3.5886051    0.0058923   -3.1177099 
C     4.2458914    2.4537156    1.7725713 
C     4.2479257    2.4501920   -1.7725713 
C     1.8468456   -4.7659015    0.0009014 
C     3.2039690   -3.9823659   -0.0009014 
N     3.1204967   -3.1670962   -1.1982182 
C     2.0205298   -3.4962818   -1.9908658 
N     1.2539611   -4.4025839   -1.2642254 
N     1.1825375   -4.2859775    1.1982182 
C     2.0176040   -3.4979711    1.9908658 
N     3.1857690   -3.2872541    1.2642254 
O     1.7891997   -3.1107693    3.1177099 
O     1.7994054   -3.1048770   -3.1177099 
C     4.2479257   -2.4501920    1.7725713 
C     4.2458914   -2.4537156   -1.7725713 
C    -1.8468456    4.7659015    0.0009014 
C    -3.2039690    3.9823659   -0.0009014 
N    -3.1204967    3.1670962   -1.1982182 
C    -2.0205298    3.4962818   -1.9908658 
N    -1.2539611    4.4025839   -1.2642254 
N    -1.1825375    4.2859775    1.1982182 
C    -2.0176040    3.4979711    1.9908658 
N    -3.1857690    3.2872541    1.2642254 
O    -1.7891997    3.1107693    3.1177099 
O    -1.7994054    3.1048770   -3.1177099 
C    -4.2479257    2.4501920    1.7725713 
C    -4.2458914    2.4537156   -1.7725713 
C     3.2039690    3.9823659    0.0009014 
C     1.8468456    4.7659015   -0.0009014 
N     1.1825375    4.2859775   -1.1982182 
C     2.0176040    3.4979711   -1.9908658 
N     3.1857690    3.2872541   -1.2642254 
N     3.1204967    3.1670962    1.1982182 
C     2.0205298    3.4962818    1.9908658 
N     1.2539611    4.4025839    1.2642254 
O     1.7994054    3.1048770    3.1177099 
O     1.7891997    3.1107693   -3.1177099 
C    -0.0020343    4.9039076    1.7725713 
C     0.0020343    4.9039076   -1.7725713 
C    -3.2039690   -3.9823659    0.0009014 
C    -1.8468456   -4.7659015   -0.0009014 
N    -1.1825375   -4.2859775   -1.1982182 
C    -2.0176040   -3.4979711   -1.9908658 
N    -3.1857690   -3.2872541   -1.2642254 
N    -3.1204967   -3.1670962    1.1982182 
C    -2.0205298   -3.4962818    1.9908658 
N    -1.2539611   -4.4025839    1.2642254 
O    -1.7994054   -3.1048770    3.1177099 
O    -1.7891997   -3.1107693   -3.1177099 
C     0.0020343   -4.9039076    1.7725713 
C    -0.0020343   -4.9039076   -1.7725713 
C    -5.0508146    0.7835356    0.0009014 
C    -5.0508146   -0.7835356   -0.0009014 
N    -4.3030341   -1.1188813   -1.1982182 
C    -4.0381338   -0.0016892   -1.9908658 
N    -4.4397300    1.1153298   -1.2642254 
N    -4.3030341    1.1188813    1.1982182 
C    -4.0381338    0.0016892    1.9908658 
N    -4.4397300   -1.1153298    1.2642254 
O    -3.5886051    0.0058923    3.1177099 
O    -3.5886051   -0.0058923   -3.1177099 
C    -4.2458914   -2.4537156    1.7725713 
C    -4.2479257   -2.4501920   -1.7725713 
H     6.0602949   -1.2185076    0.0570512 
H     6.0602949    1.2185076   -0.0570512 
H     5.1636848    3.0351784    1.6063884 
H     4.0400794    2.3531584    2.8420358 
H     5.2103840    2.9542930   -1.6063884 
H     4.0579347    2.3222322   -2.8420358 
H     1.9748889   -5.8576232    0.0570512 
H     4.0854060   -4.6391156   -0.0570512 
H     4.0579347   -2.3222322    2.8420358 
H     5.2103840   -2.9542930    1.6063884 
H     4.0400794   -2.3531584   -2.8420358 
H     5.1636848   -3.0351784   -1.6063884 
H    -1.9748889    5.8576232    0.0570512 
H    -4.0854060    4.6391156   -0.0570512 
H    -5.2103840    2.9542930    1.6063884 
H    -4.0579347    2.3222322    2.8420358 
H    -5.1636848    3.0351784   -1.6063884 
H    -4.0400794    2.3531584   -2.8420358 
H     4.0854060    4.6391156    0.0570512 
H     1.9748889    5.8576232   -0.0570512 
H    -0.0178552    4.6753906    2.8420358 
H    -0.0466992    5.9894714    1.6063884 
H     0.0178552    4.6753906   -2.8420358 
H     0.0466992    5.9894714   -1.6063884 
H    -4.0854060   -4.6391156    0.0570512 
H    -1.9748889   -5.8576232   -0.0570512 
H     0.0466992   -5.9894714    1.6063884 
H     0.0178552   -4.6753906    2.8420358 
H    -0.0466992   -5.9894714   -1.6063884 
H    -0.0178552   -4.6753906   -2.8420358 
H    -6.0602949    1.2185076    0.0570512 
H    -6.0602949   -1.2185076   -0.0570512 
H    -4.0400794   -2.3531584    2.8420358 
H    -5.1636848   -3.0351784    1.6063884 
H    -4.0579347   -2.3222322   -2.8420358 
H    -5.2103840   -2.9542930   -1.6063884 

27_m1.wfx

