%nprocs=4
%mem=4GB
#p pbepbe aug-cc-pvtz output=wfx scf=(conver=6) int=(grid=ultrafine)

title

1 1
C     0.3336851    0.6792318    0.0000000 
C    -0.3247576   -0.6923827    0.0000000 
C     0.7395795   -1.7992907    0.0000000 
N    -0.7302588    1.7892916    0.0000000 
H    -1.3337531    1.7136647    0.8280045 
H    -1.3337531    1.7136647   -0.8280045 
H    -0.3081088    2.7257647    0.0000000 
H    -0.9653310   -0.7935678    0.8857792 
H    -0.9653310   -0.7935678   -0.8857792 
H     0.9416299    0.8536054   -0.8907233 
H     0.9416299    0.8536054    0.8907233 
H     0.2541161   -2.7774003    0.0000000 
H     1.3753264   -1.7363095   -0.8883047 
H     1.3753264   -1.7363095    0.8883047 

28_m2.wfx

