%nprocs=4
%mem=4GB
#p pbepbe aug-cc-pvtz output=wfx scf=(conver=6) int=(grid=ultrafine)

title

-1 1
C     0.9050793   -0.0501092    0.0000000 
O     1.4113431   -1.2055231    0.0000000 
C    -0.6637595    0.0174592    0.0000000 
O     1.4804135    1.0732559    0.0000000 
H    -1.0087645    0.5733766   -0.8827415 
H    -1.0087645    0.5733766    0.8827415 
H    -1.1155473   -0.9818360    0.0000000 

29_m2.wfx

