%nprocs=4
%mem=4GB
#p pbepbe aug-cc-pvtz output=wfx scf=(conver=6) int=(grid=ultrafine)

title

-1 1
C     3.1062506   -0.4170458   -2.4317307 
C     3.8113882   -1.1473823   -3.3745020 
C     3.1690125   -2.4080151   -3.5155811 
C     2.0855530   -2.4306733   -2.6521094 
C     3.3324889    1.0035139   -1.9378971 
C     4.7417326    1.4512361   -2.4148311 
C     2.3115917    1.9695392   -2.5147425 
C     2.4194455    2.8104755   -3.6101871 
C     1.0720349   -3.5279149   -2.3792316 
C     1.1427374   -3.9687936   -0.8930573 
C     1.4324435   -4.7484794   -3.2453544 
C    -0.3344407   -3.0829637   -2.7367224 
C    -1.1586139   -3.4878002   -3.7745983 
N     2.0604681   -1.2127028   -2.0034456 
N     1.0562998    2.1592561   -1.9784950 
N    -1.0358779   -2.1417710   -2.0094134 
C    -2.0581499    2.4545960   -2.6465694 
C    -3.1309040    2.4395937   -3.5235551 
C    -3.7746006    1.1776571   -3.4018317 
C    -3.0808124    0.4391364   -2.4569940 
C    -1.0478044    3.5494674   -2.3530102 
C    -1.1321284    3.9754589   -0.8632291 
C    -1.4005427    4.7787154   -3.2099837 
C     0.3619891    3.1084394   -2.7021257 
C     1.1960088    3.5241979   -3.7277530 
C    -3.3125435   -0.9860760   -1.9791726 
C    -4.7170586   -1.4287054   -2.4744848 
C    -2.2860917   -1.9465050   -2.5555543 
C    -2.3832775   -2.7756204   -3.6609619 
N    -2.0404157    1.2307935   -2.0086793 
C     3.3629686    1.0635807   -0.4188954 
C     3.3782304    2.1601723    0.4562428 
N     3.6215383   -0.0532285    0.3166942 
C     3.6684299    1.6652256    1.7548075 
C     3.8067475    0.2749975    1.6473640 
C    -3.3584361   -1.0609231   -0.4612816 
C    -3.3812998   -2.1658313    0.4032983 
N    -3.6262676    0.0484532    0.2821028 
C    -3.6857380   -1.6835698    1.7033193 
C    -3.8250444   -0.2925325    1.6075910 
C     4.0672542   -0.7241871    2.6532557 
C    -4.0970840    0.6967109    2.6201413 
O     4.2948180   -0.5326908    3.8407867 
O    -4.3367605    0.4935744    3.8033919 
O     4.0259238   -1.9934867    2.1059274 
O    -4.0512603    1.9712657    2.0854225 
C    -4.2498941    3.0438478    3.0332395 
C     4.2135331   -3.0750582    3.0457504 
C    -3.8655213    4.3346405    2.3344758 
C     3.8428009   -4.3596577    2.3284582 
C    -3.8049185   -2.5107241    2.9483516 
C     3.7764740    2.4807175    3.0084971 
C     2.4268091    2.6250887    3.7339454 
C    -2.4627603   -2.6566462    3.6873936 
C    -3.1377835   -3.6021039    0.0417688 
C     3.1407716    3.6002523    0.1060248 
H     4.6840899   -0.8100047   -3.9152095 
H     3.4671010   -3.2069512   -4.1796588 
H     4.9373511    2.4695704   -2.0721303 
H     4.8049351    1.4269771   -3.5062575 
H     5.4979893    0.7791754   -2.0013393 
H     3.2807846    2.9042443   -4.2560667 
H     0.4315987   -4.7846555   -0.7181970 
H     0.9067268   -3.1480453   -0.2128044 
H     2.1543900   -4.3262968   -0.6691904 
H     1.4163182   -4.5011124   -4.3108353 
H     0.7159175   -5.5550378   -3.0627437 
H     2.4351843   -5.1028624   -2.9864742 
H    -0.9095413   -4.2154594   -4.5339877 
H     1.3961726   -0.9785510   -1.2486156 
H     0.6867536    1.6919157   -1.1396827 
H    -0.6750381   -1.6836623   -1.1616793 
H    -3.4207469    3.2443381   -4.1842641 
H    -4.6404065    0.8449907   -3.9563693 
H    -0.4229115    4.7897560   -0.6738487 
H    -0.9020187    3.1480276   -0.1890834 
H    -2.1458959    4.3304531   -0.6449902 
H    -1.3739580    4.5423770   -4.2777648 
H    -0.6862380    5.5836775   -3.0122024 
H    -2.4059389    5.1299285   -2.9571698 
H     0.9542873    4.2601333   -4.4815194 
H    -4.7694143   -1.3937155   -3.5661948 
H    -5.4771982   -0.7604395   -2.0619644 
H    -4.9163500   -2.4502987   -2.1438057 
H    -3.2384037   -2.8625090   -4.3159881 
H    -1.3865240    0.9897874   -1.2459009 
H     3.6215661   -0.9960137   -0.0503541 
H    -3.6243193    0.9945920   -0.0762381 
H    -3.6329161    2.8513337    3.9161744 
H    -5.2989915    3.0438572    3.3520505 
H     3.5830671   -2.8931296    3.9214125 
H     5.2577639   -3.0756124    3.3800576 
H    -2.8150749    4.3114691    2.0304439 
H    -4.0138483    5.1821306    3.0133080 
H    -4.4784261    4.4936844    1.4417237 
H     2.7969447   -4.3359143    2.0090776 
H     3.9831376   -5.2135571    3.0009234 
H     4.4693486   -4.5082524    1.4434155 
H    -4.1818946   -3.5060090    2.6779302 
H    -4.5334003   -2.0489605    3.6212721 
H     4.1600432    3.4769980    2.7511869 
H     4.4957766    2.0103238    3.6853163 
H     1.6726854    3.0692938    3.0766786 
H     2.5294289    3.2590646    4.6231545 
H     2.0602744    1.6456044    4.0489411 
H    -1.6997329   -3.0917206    3.0343002 
H    -2.5726227   -3.2993194    4.5694577 
H    -2.1035083   -1.6787526    4.0154883 
H    -3.1925123   -3.7596570   -1.0380516 
H    -3.8717279   -4.2569486    0.5275849 
H    -2.1418203   -3.9285252    0.3661000 
H     3.2023995    3.7672479   -0.9719817 
H     3.8735971    4.2487949    0.6019512 
H     2.1438189    3.9264512    0.4274674 
C     0.7160986   -0.9709752    4.4195834 
C     0.7060956   -0.9788258    3.0270197 
C    -0.0266628   -0.0159941    5.1170461 
C    -0.0123784   -0.0086482    2.3221655 
C    -0.7621569    0.9427345    4.4170760 
C    -0.7379284    0.9579170    3.0247263 
C    -0.0053052   -0.0050681    0.8185770 
O    -0.3770092    1.0566507    0.2321067 
O     0.3714696   -1.0636741    0.2304809 
H     1.3004500   -1.7073771    4.9640443 
H     1.2562875   -1.7229085    2.4612739 
H    -0.0322558   -0.0188429    6.2040002 
H    -1.3518231    1.6764852    4.9594017 
H    -1.2826672    1.7047878    2.4573757 

30_di.wfx

