%nprocs=4
%mem=4GB
#p pbepbe aug-cc-pvtz output=wfx scf=(conver=6) int=(grid=ultrafine)

title

0 1
C     2.8172988   -0.7912091   -1.2715822 
C     3.2741860   -1.8678183   -0.5225310 
C     2.5526268   -3.0243034   -0.9415678 
C     1.6797167   -2.6389172   -1.9454337 
C     3.1783594    0.6883782   -1.2622015 
C     4.6777672    0.8367922   -1.6418783 
C     2.3137085    1.4239668   -2.2708929 
C     2.3875107    1.5298983   -3.6508275 
C     0.7155589   -3.4095655   -2.8213927 
C     0.3979768   -4.7732854   -2.1653159 
C     1.3515375   -3.6595279   -4.2082260 
C    -0.5584159   -2.6104833   -2.9876347 
C    -1.3323256   -2.2955421   -4.0929358 
N     1.8581312   -1.2841919   -2.1223245 
N     1.1472961    2.0492632   -1.8893972 
N    -1.2058231   -2.0817491   -1.8922742 
C    -1.7550317    2.6057440   -1.9331225 
C    -2.6558915    2.9934181   -0.9549205 
C    -3.3789472    1.8353430   -0.5437567 
C    -2.8961045    0.7558092   -1.2717723 
C    -0.7833396    3.3807800   -2.7974500 
C    -0.4542909    4.7325033   -2.1219210 
C    -1.4179030    3.6561281   -4.1801859 
C     0.4842470    2.5751033   -2.9772543 
C     1.2382675    2.2500593   -4.0931507 
C    -3.2342473   -0.7284730   -1.2389346 
C    -4.7393302   -0.9056864   -1.5800943 
C    -2.3814398   -1.4639062   -2.2578698 
C    -2.4773385   -1.5780547   -3.6357696 
N    -1.9185492    1.2481181   -2.1020819 
C     2.9435153    1.2928663    0.1156016 
C     3.0421381    2.6234222    0.5479076 
N     2.5543183    0.5408637    1.1833292 
C     2.6972805    2.6499029    1.9276084 
C     2.3971495    1.3356001    2.3017440 
C    -2.9553781   -1.3088129    0.1415968 
C    -3.0129640   -2.6340743    0.5971323 
N    -2.5514612   -0.5318747    1.1855667 
C    -2.6269850   -2.6310131    1.9662617 
C    -2.3451401   -1.3047702    2.3112260 
C     2.0477819    0.7813785    3.5950960 
C    -1.9685161   -0.7213044    3.5838254 
O     1.8238490    1.4318359    4.6082984 
O    -1.7093224   -1.3475932    4.6037199 
O     2.0147758   -0.5848158    3.5498591 
O    -1.9543923    0.6441407    3.5110239 
C    -1.6489255    1.3531477    4.7504379 
C     1.7316624   -1.2670323    4.8099592 
C    -2.1880182    2.7618265    4.5992080 
C     2.2937951   -2.6699744    4.6920977 
C    -2.5098146   -3.8345380    2.8536794 
C     2.6402129    3.8682870    2.8007531 
C     1.2327174    4.4929658    2.8335806 
C    -1.0876956   -4.4262284    2.8388376 
C    -3.4282900   -3.8441516   -0.1904488 
C     3.4581487    3.8119418   -0.2714560 
H     2.6699779   -4.0259161   -0.5526883 
H     4.9767188    1.8875056   -1.6239076 
H     4.8520287    0.4320392   -2.6427335 
H     5.2917672    0.2788156   -0.9306331 
H     3.1752149    1.1309606   -4.2745430 
H    -0.3051178   -5.3282897   -2.7926563 
H    -0.0484432   -4.6397349   -1.1754786 
H     1.3114630   -5.3668526   -2.0547201 
H     1.5912117   -2.7148648   -4.7056612 
H     0.6676961   -4.2267022   -4.8486694 
H     2.2752025   -4.2323073   -4.0885059 
H    -1.1115010   -2.5629636   -5.1164548 
H     0.8578923    2.1500967   -0.9236868 
H    -0.8986495   -2.1749626   -0.9311126 
H    -2.7909240    3.9977042   -0.5788930 
H    -4.1648638    1.7998778    0.1988247 
H     0.2528415    5.2909851   -2.7417158 
H    -0.0089497    4.5817812   -1.1340353 
H    -1.3628216    5.3317891   -2.0024359 
H    -1.6657785    2.7205472   -4.6905388 
H    -0.7298815    4.2272182   -4.8127002 
H    -2.3369353    4.2342194   -4.0511512 
H     1.0018923    2.5132306   -5.1142406 
H    -4.9435427   -0.5209881   -2.5831215 
H    -5.3458471   -0.3458545   -0.8637971 
H    -5.0209019   -1.9604295   -1.5373964 
H    -3.2758989   -1.1844389   -4.2489739 
H    -1.4164576    0.6763740   -2.7720383 
H     2.3943520   -0.4601533    1.1497206 
H    -2.4210549    0.4726728    1.1325302 
H    -0.5647592    1.3428505    4.8921058 
H    -2.1177706    0.8120447    5.5760936 
H     0.6481986   -1.2711315    4.9573547 
H     2.1971322   -0.6961298    5.6170995 
H    -1.7451579    3.2595704    3.7315412 
H    -1.9387190    3.3451752    5.4918169 
H    -3.2760190    2.7550483    4.4800230 
H     1.8523250   -3.1993253    3.8426359 
H     2.0621233   -3.2326668    5.6025967 
H     3.3805219   -2.6480331    4.5633457 
H    -3.2268392   -4.5965173    2.5251616 
H    -2.7653383   -3.5562170    3.8799281 
H     3.3611635    4.6086001    2.4337535 
H     2.9295516    3.5986437    3.8203547 
H     0.8998682    4.7689133    1.8265309 
H     1.2187098    5.3926317    3.4584657 
H     0.5174023    3.7765780    3.2457044 
H    -0.7905203   -4.7140014    1.8239213 
H    -1.0260968   -5.3128513    3.4792379 
H    -0.3724342   -3.6854955    3.2059095 
H    -3.3938619   -3.6528906   -1.2662700 
H    -4.4500211   -4.1559586    0.0624776 
H    -2.7707766   -4.6953980    0.0168398 
H     3.3752226    3.6083910   -1.3424486 
H     4.4971978    4.0991589   -0.0641243 
H     2.8321271    4.6828333   -0.0493371 
H     4.0461913   -1.8335271    0.2345621 
H     1.3742357   -0.7122429   -2.8056120 

30_m1.wfx

