%nprocs=4
%mem=4GB
#p pbepbe aug-cc-pvtz output=wfx scf=(conver=6) int=(grid=ultrafine)

title

0 1
c -1.476274609387159 -1.153156424735812 -0.292796614932225
c -2.868922014106841 -1.158814792539041 -0.294692138935489
c -3.592259277384713 0.001849556628437 0.038238953265215
c -2.868240783104857 1.161592595069841 0.373280179553403
c -1.475690808246279 1.154497648208781 0.373398377904811
c -0.739311689869918 0.000234896146444 0.041063438533416
c 1.476274609387159 1.153156424735812 -0.292796614932225
c 0.739311689869918 -0.000234896146444 0.041063438533416
c 1.475690808246279 -1.154497648208781 0.373398377904811
c 2.868240783104857 -1.161592595069841 0.373280179553403
c 3.592259277384713 -0.001849556628437 0.038238953265215
c 2.868922014106841 1.158814792539041 -0.294692138935489
n 4.990962605457603 0.013852609580678 0.092371597723961
n -4.990962605457603 -0.013852609580678 0.092371597723961
h -0.945575741235750 -2.057846492720011 -0.582590804242629
h -3.407758208381315 -2.066595526904220 -0.565539285081820
h -3.406667676489991 2.068045178895769 0.649042948834318
h -0.944434435572979 2.059920116290155 0.659738525085378
h 0.945575741235750 2.057846492720011 -0.582590804242629
h 0.944434435572979 -2.059920116290155 0.659738525085378
h 3.406667676489991 -2.068045178895769 0.649042948834318
h 3.407758208381315 2.066595526904220 -0.565539285081820
h 5.435344517995544 -0.887836749806185 -0.024637038538572
h 5.434543046148109 0.731265999217785 -0.466878139169768
h -5.434543046148109 -0.731265999217785 -0.466878139169768
h -5.435344517995544 0.887836749806185 -0.024637038538572

i13e.wfx

