%nprocs=4
%mem=4GB
#p pbepbe aug-cc-pvtz output=wfx scf=(conver=6) int=(grid=ultrafine)

title

0 1
c 0.299124705715046 1.237197111035979 -0.814044072204161
c -0.283311326067029 -0.064415322350668 -1.414533795503050
c 0.007954656352450 -1.421041970309523 -0.748007740752236
c 0.087553892179181 -1.215689437809744 0.833483299408129
c -0.179121510302744 0.217185014986834 1.446153572592276
c -0.319525742398261 1.537722470608655 0.556654506252249
c -0.068551251280219 1.921627759616605 -2.171235215023904
c 0.021117386551242 0.498920177669382 -2.835245626780185
c -1.801927928976528 -0.463770494669777 -1.329239492952224
c -1.326064009183200 -1.943324595843895 -1.312330749817171
c 1.365848584492208 -2.154322166714012 -0.724428004484120
c 1.483325646244126 -1.898167063537941 0.807987700668126
c -1.006638407011883 -1.780736774916288 1.778541509989113
c -1.424232580639821 -0.341307083910550 2.183037773784401
c 0.874576766945977 0.950561543515054 2.317726070611978
c 0.506802234392430 2.300567522042066 1.638889046228673
o -1.633599920586823 2.054086512152112 0.343405585858282
c 1.839559654131240 1.180163161782893 -0.719660800267320
h 0.615279304932770 2.699328382317622 -2.535497393568442
h -1.096676517494698 2.295709056616523 -2.170302001153317
h -0.713227581955376 0.260431081961601 -3.613470532686741
h 1.025320910096364 0.275400071186656 -3.211834723214618
h -2.435806990353623 -0.131344101771640 -2.159419000717409
h -2.267799013391899 -0.175047900881147 -0.387711171344058
h -1.896174030740559 -2.673741792075202 -0.724989395387679
h -1.188887641031743 -2.333078764998379 -2.330196496573424
h 2.143707504250087 -1.684477940913389 -1.338310643155547
h 1.297161615310936 -3.215238975898686 -0.996284709007521
h 1.521043723449615 -2.807302696163188 1.422136090255609
h 2.319405216378732 -1.255705506995747 1.108326030454628
h -0.560252577590543 -2.341542073590534 2.609691333787564
h -1.786656709458088 -2.400809289721575 1.322570803335149
h -2.371195716318504 -0.026120848248187 1.727819480668561
h -1.462617464807087 -0.131612055421589 3.260100775141244
h 1.903654112533774 0.633400529616555 2.120959380635239
h 0.696587200074583 0.891856746244600 3.399014208498285
h -0.162120435985525 2.909231757486052 2.260994033002897
h 1.330952080298295 2.935362957787798 1.295436671454435
h -2.055526491187378 2.125170437638414 1.210782519310803
h 2.188090353327533 0.525212805303683 0.078638426745942
h 2.282596638385971 0.821900286864329 -1.652909137911367
h 2.230251660718936 2.187761470308230 -0.532698116179001

i15e.wfx

