%nprocs=4
%mem=4GB
#p pbepbe aug-cc-pvtz output=wfx scf=(conver=6) int=(grid=ultrafine)

title

0 1
c -3.975849845482607 -1.774086273768474 -0.628527113951070
c -3.873739443785815 -0.708937930563525 0.306073453590310
c -2.696996763484230 0.034516958834419 0.401479620330658
c -1.628651284810532 -0.296085408566237 -0.437193778990305
c -1.721095787129414 -1.334319489205645 -1.359539489566424
c -2.899323347044609 -2.081649501378140 -1.460402179680571
c -0.446441061951136 -1.480212896942423 -2.150873399357862
c 0.593147125220616 -0.582552374770217 -1.418287293392217
c -0.277086498174192 0.419485198188488 -0.500351712297598
c 0.334303690662514 0.549264814381107 0.869443117274066
c 0.626776868176600 1.754924492132061 1.395452212973127
c 0.337171679671992 3.034333675780614 0.720017685533959
c -0.183841585907577 2.930136084355098 -0.678633451385115
c -0.452672262951907 1.721996791280365 -1.218338875255532
n 1.523778450155610 -1.362354099574520 -0.602601309857205
c 0.922921183370116 -1.895721606873438 0.625852758426811
c 0.598021129770600 -0.741656272256665 1.609379089192002
o 0.503241777943693 4.113572677590496 1.293857900481716
o -0.507889971186217 4.057783776850523 -1.385597597874047
c 0.544046414332635 5.037468112900600 -1.557257323715845
c 2.875474801863520 -1.097246462707010 -0.717115571167151
o 3.574821872175826 -1.658886319562314 0.316971199551712
c 5.020387291121245 -1.507806662306992 0.243945163195966
c 5.604936873745716 -2.173097705439155 1.478089557454037
o -5.007948403611733 -0.513130447694211 1.062847554850824
c -4.998920038481592 0.573000228826881 1.996605897834485
o -5.123687247390307 -2.513388785379211 -0.724779595305794
o 3.394387744141426 -0.476843103529965 -1.630708169820136
h -5.763275316352023 -2.157905192540782 -0.086934921419998
h 1.066339988673927 1.841451177722927 2.389214372159949
h -0.870606429379140 1.672427071909982 -2.223008098683470
h 0.130276050061598 5.789271516438538 -2.236445215794453
h 0.817766568838474 5.492985697041694 -0.600614659461909
h 1.425583626847454 4.568467652124492 -2.020730167996668
h -0.292409892109927 -1.017082284014945 2.194112660450207
h 1.424855322302680 -0.590950186113148 2.313225725670833
h 1.593574332697079 -2.623921561260789 1.081701176023267
h 0.001073551924232 -2.408552120176021 0.333347214445798
h 1.191649155751689 -0.005351490496487 -2.122293254763836
h -0.579350252447915 -1.128557802957111 -3.183955266143191
h -0.087820279556097 -2.515916656637548 -2.206532636254664
h -2.603460403277279 0.856736952956386 1.105377276485448
h -3.002880372443693 -2.901122371321121 -2.168366348799785
h -4.212989594697574 0.429833234264419 2.753260359348692
h -5.982370881364493 0.566416351716486 2.473889992862726
h -4.836323338179865 1.529880411802540 1.479128388719249
h 5.262299570506564 -0.438825395812930 0.201001999318959
h 5.378538981147271 -1.974679799833565 -0.682092000039723
h 5.232927718500568 -1.695537521709902 2.392909890792343
h 6.698385161551601 -2.078246563810885 1.456900142451047
h 5.348943370044620 -3.239328589894830 1.507095021556399

i16p.wfx

