%nprocs=4
%mem=4GB
#p pbepbe aug-cc-pvtz output=wfx scf=(conver=6) int=(grid=ultrafine)

title

0 1
c 0.940518115271936 0.633931160737117 -0.659876575397215
c 0.299799766822807 -0.658017221248381 -0.037723819062169
c 1.247713568595040 -0.975726482852508 1.140743909722934
c 2.298295136148205 0.205411024150863 1.146786579557178
c 3.563581751372424 -0.156304828730696 0.259182763776755
c 1.989965665338955 0.093595832009184 -1.640102276535436
o 1.614656703303688 1.247438189554657 0.448927194270863
c 2.663432358864331 0.695770017476017 2.540529794326635
c -0.003359837214335 1.684184685298300 -1.225859385950835
c 3.194223559789005 -0.323858254585849 -1.201445034384733
n 0.369326467003632 -0.932575152067046 2.346817414087915
n -0.803189736847239 -0.638522168803806 2.026133826982146
n -0.956598508115342 -0.445397564895143 0.675316092693791
c -3.669550340404404 -0.562728075990253 -1.858110325843823
c -4.794592841741118 -0.293199161322499 -1.075311682123316
c -4.632070958944234 -0.076572379014963 0.298947280932288
c -3.369793699957003 -0.120008233191293 0.888167367670222
c -2.238783261875243 -0.395237651098985 0.095898441515195
c -2.397169957660750 -0.616378701616732 -1.283389504552073
h 0.197924912854462 -1.459585887286914 -0.775105356856479
h 1.727094075185917 -1.954228495564928 1.108483549805464
cl 4.348174837183999 -1.679583539722579 0.920924965852236
cl 4.827506876981713 1.193384431928408 0.332517887745402
cl 1.474385759028378 -0.134769197185046 -3.295910661442887
h 3.201860516058522 -0.085983390472101 3.084499267784430
h 1.744060235468070 0.928485129847659 3.082089778156668
h 3.285291282159321 1.590726143924232 2.472548358733970
h -0.591600661633817 1.293058885861219 -2.056833471222516
h 0.579833977659036 2.546309745216313 -1.566486609439511
h -0.681495850617394 1.997053973740494 -0.426795938109576
cl 4.408785006795958 -0.974285327634185 -2.275934589657881
h -3.774354997569191 -0.735499864090676 -2.927379157834917
h -5.782907012305542 -0.251130004879733 -1.526938854209440
h -5.498111509235962 0.135434380109103 0.922816547476380
h -1.535992415813938 -0.822742509527509 -1.911109326850309
h -3.246858981949931 0.047550491928334 1.952981548382623

i19e.wfx

