%nprocs=4
%mem=4GB
#p pbepbe aug-cc-pvtz output=wfx scf=(conver=6) int=(grid=ultrafine)

title

0 1
c 0.625579345563561 -2.241625990687887 -0.086120706660238
c -0.175481829480350 -3.226442333583813 0.337883107471732
h -0.959717917462874 -3.038055176851111 1.070502730988554
h -0.060580227247033 -4.246671393206777 -0.026154315510670
c 1.711621578401369 -2.448103911917594 -1.107909016061761
h 2.697878164391173 -2.236197881024771 -0.673081936687612
h 1.702931908714786 -3.473693366134071 -1.494184159429985
h 1.586087317043665 -1.749979526896595 -1.947562269859416
c 0.472500127395314 -0.839337150748369 0.473766730332251
n 0.262203858818210 0.172710240439550 -0.578091501957828
c -1.034968847572097 0.056575177375281 -1.276338821915026
c -2.213219803582209 0.381593357972357 -0.379366278200220
c -3.102233829629667 -0.625118415162281 0.018477236421148
c -4.178497735620471 -0.332448966007726 0.864320030190132
c -4.369009837212324 0.974387925667284 1.322809757601305
c -3.481804038413511 1.985325112654927 0.930704199066369
c -2.409468602444733 1.692290552993943 0.084620993310610
h -2.945556009899411 -1.642676632203335 -0.337191668820775
h -4.863693113432123 -1.122936653766933 1.165564693580311
h -5.204247306779104 1.205792917482520 1.981302185392853
h -3.630524147309696 3.004986671617892 1.281925262470171
h -1.716703754800837 2.470121294777499 -0.228867579480477
c 0.985765139239565 1.331548826491686 -0.741513596033281
c 2.362960978408060 1.434772949556139 -0.196585799899758
o 0.551924457973830 2.312811711551139 -1.356300734112509
c 3.092415213766739 2.569288221887481 0.049808200165455
c 4.393001464841508 2.161243561898894 0.469916099455284
c 4.370612662701357 0.794265441931474 0.436442010262569
h 2.720759383494580 3.577669309717817 -0.074127243319309
h 5.232741012743575 2.781291072171218 0.752443900117445
o 3.162847991963809 0.318885821852640 0.037353311665909
cl 5.578890275520952 -0.379959198684041 0.791257400633537
h -0.395188773184766 -0.806647145801955 1.147572439442902
h 1.355187903806157 -0.569561658914087 1.056180826780730
h -1.007601052599449 0.731394482557579 -2.136302846128228
h -1.117411958117602 -0.977499249005889 -1.633152641272116

i21p.wfx

