%nprocs=4
%mem=4GB
#p pbepbe aug-cc-pvtz output=wfx scf=(conver=6) int=(grid=ultrafine)

title

1 1
n -0.072978645295406 1.949232567607572 -0.475905201051592
c 0.869074373800574 1.083236956661606 0.445401995535569
c 0.120826221322684 -0.292250746594592 0.428734745977453
c -1.312397470424854 0.074710068913654 0.255693520374352
c -1.425442697139395 1.348582158418306 -0.299312291123350
c 2.270761284364392 0.756020299975539 -0.134276717352136
c 2.226310185652338 -0.795564514120337 -0.236409022739225
c 2.132942284185185 -1.373360912739694 1.208251589092292
c 0.641258369405178 -1.110201485563373 1.625851726481589
c 0.800250521835729 -1.056100499092173 -0.799683850179903
c -2.627315593028866 1.941639214641813 -0.649870024476217
c -3.792118709870932 1.200066135886811 -0.417389625348660
c -3.704189792401654 -0.084615469666364 0.141104138690014
c -2.471466126016409 -0.662996885312771 0.482223507478486
c 0.903964435682816 1.830765100456041 1.775203594643318
c 0.386963209971120 -2.538467147245791 -0.884737766643795
c 0.530053675877310 -0.468985601943026 -2.202653465493880
cl -5.172274830557299 -0.988942664888385 0.425387881200739
h -2.429894740765690 -1.656965107046046 0.917198430168917
h -4.763499624097869 1.618795314449155 -0.661945940504771
h -2.685973989107341 2.938744372327900 -1.080624848361478
h 0.225443756561227 1.883876296097147 -1.454891232228769
h -0.045577795547553 2.935455627963858 -0.199345575071950
h 0.543228544377590 -0.575557242832768 2.573225828560035
h 0.075820324773230 -2.039541298386419 1.726059187604317
h 2.841846252023115 -0.879224682013135 1.881663200463186
h 2.361356845058605 -2.442324448040221 1.216696012808046
h 3.048474865057896 -1.210580023882862 -0.826851897125988
h 3.057281016420140 1.104398378183721 0.542452108415168
h 2.449611058445525 1.227235971571894 -1.107326818775920
h 1.335837724374637 2.830980501088986 1.631632648536061
h -0.096623566324174 1.923412386868026 2.215387667617424
h 1.549831721033057 1.299886286932013 2.478038012795434
h -0.546296096997798 -0.326096206801259 -2.364458962394194
h 1.056429483556483 0.469975588567248 -2.416411478510444
h 0.880636020774391 -1.171267927028219 -2.966535166670182
h -0.684891814831463 -2.615264593796424 -1.109869968624576
h 0.932938987160225 -3.019038301105982 -1.704829871325941
h 0.589800330693341 -3.109667468511508 0.023123927560505

i23e.wfx

