%nprocs=4
%mem=4GB
#p pbepbe aug-cc-pvtz output=wfx scf=(conver=6) int=(grid=ultrafine)

title

0 1
c -3.057164376457330 0.239431374361250 0.833009857659427
c -3.746716811996923 -0.962477970917120 0.660971929066722
c -3.104489232917302 -2.046186000101754 0.053300888910094
c -1.778357987798996 -1.921219348382126 -0.367697903464215
c -1.071502667893805 -0.718820617418488 -0.213750962449655
c -1.734004266258007 0.370831491054602 0.387600009248655
c 0.393065013810353 -0.654056308521641 -0.579311388621379
c 1.293485483346183 -0.966491744699572 0.649096972670663
c 2.762649933993064 -0.863311920741287 0.300887708369067
c 3.385106423035745 0.460691283736792 0.205444026550912
c 2.810980664238909 1.633208739594346 0.524234060559086
c -1.044962857987580 1.699586191490235 0.599183888143050
c -0.799640448436077 2.572675361325139 -0.578652027280565
c -1.257345867796715 2.317266684887145 -1.812634224061629
o -0.723321261396530 2.071173651077541 1.723630827934324
c 3.490681592162828 -1.968869390980647 0.043333086053049
h -4.776986862894096 -1.051918273399013 0.999326894985386
h -3.632799251379805 -2.987351577180398 -0.086871177198540
h -1.271342026901295 -2.770356318718263 -0.824962718558457
h -3.544735735973211 1.088366428224784 1.308651536204999
h 0.658520227613334 0.333437489091215 -0.969700178903861
h 0.612381359583384 -1.387561026219457 -1.365412261776270
h 1.065431228869485 -1.979296267595414 1.003195184679331
h 1.038729771175391 -0.272884711691113 1.460244175255669
h 4.540635306420373 -1.900976549728129 -0.239977434377843
h 3.054033765164838 -2.963654195979865 0.119411035091689
h 4.418437574330470 0.463373197862264 -0.149092004704287
h 3.365014348314091 2.565310234190671 0.432785508799471
h 1.794088517586583 1.701332005784612 0.903445823721233
h -0.239610089985754 3.481795919011841 -0.358525420959117
h -1.825327257022808 1.412523023877689 -2.024007584009052
h -1.074934206548847 3.004429146704226 -2.637158127537964

i5p.wfx

