%nprocs=4
%mem=4GB
#p pbepbe aug-cc-pvtz output=wfx scf=(conver=6) int=(grid=ultrafine)

title

0 1
c -4.153243995451446 -1.688778524357314 0.634182508847452
c -5.429607674750504 -0.823123974065606 0.688598186420612
c -5.078512111161931 0.668236531952436 0.751624762968705
c -4.203864191643842 1.056882487618952 -0.457721836531248
c -2.965474144290543 0.187919091841955 -0.573711618794901
c -3.227401968899450 -1.268415034112740 -0.494668464773678
c 1.035678956813208 2.063200830346723 -1.196800557788001
c 0.756012594338047 0.601997515750359 -0.907833026673324
c -0.466086257648118 0.053839788602049 -0.711551437415329
c -1.733492831188035 0.749834328610112 -0.689631969472443
c 2.055964196506306 2.679341372291030 -0.203454720148672
c 2.031085032357992 -0.190510946750534 -0.835771449541512
c 3.332924180477904 1.823969446845874 -0.074093013534360
c 2.993276368204038 0.365129019826142 0.263696970128991
c 2.030720158600234 -1.707725855220906 -0.589778082818604
c 4.172253575577359 -0.628372280129096 0.117332076428213
c 2.356119266206215 0.268215026082736 1.664096050284240
c 3.474251590025978 -2.008749240733834 -0.076325639088639
c -2.725674532482585 -2.157459987901051 -1.366908863685770
o -6.248047421354328 1.496756158680282 0.845113360434834
c 5.213180806466813 -0.610275820805098 1.237380713677786
h -4.411025243476389 -2.750780067228678 0.536786922575074
h -3.616469441686140 -1.565350191366829 1.588805250683068
h -6.032313873827359 -1.001416348020631 -0.216689379102707
h -6.041776107500572 -1.092620977656543 1.558454474777520
h -4.520191859846299 0.869614592970058 1.675441338747490
h -4.829369369717586 0.924358326403626 -1.359449252826569
h -3.932158723648735 2.117241719430643 -0.390947046024207
h 0.120858648211656 2.664649911109305 -1.206660343975642
h 1.471068982986635 2.127403722047142 -2.208648960723842
h -0.514422183973231 -1.019884852112759 -0.542446069329943
h -1.706012667910347 1.839378723971515 -0.731971275033728
h 2.315988541155227 3.692999730033828 -0.537149703594360
h 1.580389106973575 2.778486765683136 0.781177070461523
h 2.565386916787116 -0.012820949290696 -1.787137568485883
h 3.878151289463372 1.838690882696877 -1.031250095761987
h 3.997520977960203 2.252814612749082 0.689745560807169
h 1.774753533364051 -2.269795311981959 -1.495363488701818
h 1.292134965285075 -1.968083594439768 0.177521549686989
h 4.676774823930733 -0.365060678102152 -0.825424742482991
h 1.379376697073841 0.762086544402955 1.686471473418884
h 2.207770202610154 -0.776381238161680 1.961386282743706
h 3.006376381343877 0.744277084809957 2.408656802495193
h 4.038029070435296 -2.636972654495103 -0.776318319404729
h 3.438165133619067 -2.546937273922829 0.879959533900000
h -2.957357469970869 -3.218804399248821 -1.279826658020285
h -2.082133439951305 -1.844034857348923 -2.186005008505740
h -6.761511715193101 1.351738841773222 0.036712675725768
h 4.763030376887948 -0.907984767792929 2.193202286165647
h 6.030929458920097 -1.310112960116491 1.018021174609801
h 5.647975392990781 0.391389728833082 1.359171566252172

i7p.wfx

