%nprocs=4
%mem=4GB
#p pbepbe aug-cc-pvtz output=wfx scf=(conver=6) int=(grid=ultrafine)

title

0 1
c 0.000000000000000 -1.260947548103965 -1.288314750148866
c 0.000000000000000 0.000000000000000 -2.179178506158926
c 0.000000000000000 1.260947548103965 -1.288314750148866
c -1.258223935669702 1.255734597521715 -0.395431742668000
c -1.279197147167343 0.000000000000000 0.507872643604648
c -1.258223935669702 -1.255734597521715 -0.395431742668000
c 1.258223935669702 -1.255734597521715 -0.395431742668000
c 1.258223935669702 1.255734597521715 -0.395431742668000
c 1.279197147167343 0.000000000000000 0.507872643604648
c 0.000000000000000 0.000000000000000 1.375859154110369
c -2.525215739873962 0.000000000000000 1.395968346408976
h 0.000000000000000 -2.160553730752282 -1.919375871913374
h 0.888365883207041 0.000000000000000 -2.827594674250046
h -0.888365883207041 0.000000000000000 -2.827594674250046
h 0.000000000000000 2.160553730752282 -1.919375871913374
h -1.276620657684412 2.156709533757299 0.236344362150855
h -2.164412259338329 1.268411879581866 -1.019611834960172
h -1.276620657684412 -2.156709533757299 0.236344362150855
h -2.164412259338329 -1.268411879581866 -1.019611834960172
h 1.276620657684412 -2.156709533757299 0.236344362150855
h 2.164412259338329 -1.268411879581866 -1.019611834960172
h 1.276620657684412 2.156709533757299 0.236344362150855
h 2.164412259338329 1.268411879581866 -1.019611834960172
c 2.525215739873962 0.000000000000000 1.395968346408976
h 0.000000000000000 0.887781924780824 2.027063340728642
h 0.000000000000000 -0.887781924780824 2.027063340728642
h -3.438283144968997 0.000000000000000 0.783683088721613
h -2.542229596424696 -0.890843940520504 2.039877991913659
h -2.542229596424696 0.890843940520504 2.039877991913659
h 3.438283144968997 0.000000000000000 0.783683088721613
h 2.542229596424696 0.890843940520504 2.039877991913659
h 2.542229596424696 -0.890843940520504 2.039877991913659

i9e.wfx

