%nprocs=4
%mem=4GB
#p pbepbe aug-cc-pvtz output=wfx scf=(conver=6) int=(grid=ultrafine)

title

0 1
c 2.545309607908711 0.854070185601687 -0.215731633544949
c 2.060644644525138 -0.472286714153203 0.358375323077031
c 0.695028747548935 -0.900077682342624 -0.172946637035144
c -0.440237166736765 0.044454246881648 0.202599334759355
c -1.803397063915309 -0.458847715476067 -0.254745630714698
c -2.932109978914763 0.494290212637137 0.115553341089989
h 1.898811656835537 1.679011123270531 0.077902344068874
h 2.563893606610349 0.817270188612807 -1.305507551421100
h 3.552160532436376 1.087419167936306 0.127058340476752
h 2.014753648210463 -0.405262719619883 1.447989240759252
h 2.790930589659767 -1.249896655841471 0.127970340353352
h 0.459061765222727 -1.897730606854564 0.205754334257031
h 0.744131743684309 -0.987277675575703 -1.262453555085789
h -0.266121180153269 1.032159172224367 -0.230019632493649
h -0.451659165736716 0.179927236615389 1.288649252937735
h -1.989298050246887 -1.440655641350941 0.186474335760972
h -1.784941065242770 -0.606199704292983 -1.337046549037114
h -3.899991905914967 0.121028241113836 -0.215433633750058
h -2.777333990526767 1.472434138803532 -0.339594624550199
h -2.979636975254097 0.636171201810199 1.195153260092358

H_gtt.wfx

