%nprocs=4
%mem=2GB
#p pbepbe aug-cc-pvtz output=wfx scf=(conver=6) int=(grid=ultrafine)

title

0 1
N 0.5060215000 -1.5986551000 0.0000000000
H 1.1089148000 -1.5302068000 0.8098394000
C -0.4642536000 -0.5375838000 0.0000000000
C 0.0957484000 0.8699514000 0.0000000000
H -1.1208023000 -0.6367037000 -0.8704357000
H -1.1208023000 -0.6367037000 0.8704357000
O 1.2661433000 1.1493143000 0.0000000000
O -0.8719532000 1.7772569000 0.0000000000
H -0.5079315000 2.6735373000 0.0000000000
H 1.1089148000 -1.5302068000 -0.8098394000

gly.wfx

