%nprocs=4
%mem=2GB
#p pbepbe aug-cc-pvtz output=wfx scf=(conver=6) int=(grid=ultrafine)

title

1 1
N 0.5260074000 -1.3141872000 0.0766636000
H 1.0268775000 -1.2431628000 0.9631111000
C -0.5299342000 -0.2982108000 -0.0612852000
C 0.0654393000 1.0862277000 -0.0091572000
H -1.0404674000 -0.4604190000 -1.0102715000
H -1.2533245000 -0.4415848000 0.7405937000
O 1.2424527000 1.2986134000 0.0929678000
O -0.8771264000 1.9965553000 -0.0944053000
H -0.5094969000 2.8924794000 -0.0711515000
H 0.1277141000 -2.2532136000 0.0412610000
H 1.2218583000 -1.2630978000 -0.6683264000

glyp.wfx

