%nprocs=4
%mem=2GB
#p pbepbe aug-cc-pvtz output=wfx scf=(conver=6) int=(grid=ultrafine)

title

1 1
C 0.0000000000 -0.6885330000 -0.1540930000
C 0.0000000000 0.6885330000 -0.1540930000
H -0.9338391000 -1.2446340000 -0.1658400000
H 0.9338391000 -1.2446340000 -0.1658400000
H 0.0000000000 0.0000000000 0.9715459000
H -0.9338391000 1.2446340000 -0.1658400000
H 0.9338391000 1.2446340000 -0.1658400000

p2p.wfx

