%nprocs=4
%mem=2GB
#p pbepbe aug-cc-pvtz output=wfx scf=(conver=6) int=(grid=ultrafine)

title

0 1
C 1.8647032000 -0.4118946000 0.0000000000
C 3.0669331000 0.1759696000 0.0000000000
C 0.6039327000 0.2981449000 0.0000000000
C -0.6039327000 -0.2981449000 0.0000000000
C -1.8647032000 0.4118946000 0.0000000000
C -3.0669331000 -0.1759696000 0.0000000000
H 1.8074591000 -1.4979949000 0.0000000000
H 3.1708029000 1.2557067000 0.0000000000
H 3.9813252000 -0.4032578000 0.0000000000
H 0.6549419000 1.3851481000 0.0000000000
H -0.6549419000 -1.3851481000 0.0000000000
H -1.8074591000 1.4979949000 0.0000000000
H -3.1708029000 -1.2557067000 0.0000000000
H -3.9813252000 0.4032578000 0.0000000000

p6.wfx

