%nprocs=4
%mem=2GB
#p pbepbe aug-cc-pvtz output=wfx scf=(conver=6) int=(grid=ultrafine)

title

0 1
C -0.8831710000 -0.3953046000 0.0224696000
C 0.3686256000 0.4103031000 -0.1944490000
O 0.4575694000 1.3809461000 -0.8928870000
O 1.4060740000 -0.0807237000 0.4942098000
H -1.1388570000 -0.3790546000 1.0808175000
H -0.7005835000 -1.4280351000 -0.2699744000
H -1.6972882000 0.0218323000 -0.5643095000
H 2.1876306000 0.4700365000 0.3241231000

ch3cooh.wfx

