%nprocs=4
%mem=2GB
#p pbepbe aug-cc-pvtz output=wfx scf=(conver=6) int=(grid=ultrafine)

title

0 1
P 0.0000000000 0.0000000000 -1.3950074000
C -1.2957966000 0.0000000000 -0.2807735000
C -0.7069001000 0.0000000000 0.9755261000
C 0.7069001000 0.0000000000 0.9755261000
C 1.2957966000 0.0000000000 -0.2807735000
H 0.0000000000 0.0000000000 -2.7766410000
H -2.3529057000 0.0000000000 -0.4955947000
H -1.2917838000 0.0000000000 1.8866663000
H 1.2917838000 0.0000000000 1.8866663000
H 2.3529057000 0.0000000000 -0.4955947000

phosphapyrrol.wfx

