%nprocs=4
%mem=2GB
#p pbepbe aug-cc-pvtz output=wfx scf=(conver=6) int=(grid=ultrafine)

title

1 1
C -0.8816070000 -0.6161277000 0.0000000000
C 0.5853281000 -0.3054333000 0.0000000000
O 0.8438437000 1.1631082000 0.0000000000
H -0.9886350000 -1.7015647000 0.0000000000
H -1.3819050000 -0.2335470000 0.8896936000
H -1.3819050000 -0.2335470000 -0.8896936000
H 1.1032189000 -0.6567368000 -0.8878757000
H 1.1032189000 -0.6567368000 0.8878757000
H 0.4992213000 1.6202926000 -0.7887614000
H 0.4992213000 1.6202926000 0.7887614000

ethanolp.wfx

