%nprocs=4
%mem=2GB
#p pbepbe aug-cc-pvtz output=wfx scf=(conver=6) int=(grid=ultrafine)

title

0 1
C -4.2977311000 -0.2046706000 0.0000000000
C -3.1048049000 0.4040864000 0.0000000000
C -1.8333444000 -0.2818870000 0.0000000000
C -0.6340964000 0.3389721000 0.0000000000
C 0.6340964000 -0.3389721000 0.0000000000
C 1.8333444000 0.2818870000 0.0000000000
C 3.1048049000 -0.4040864000 0.0000000000
C 4.2977311000 0.2046706000 0.0000000000
H -4.3830321000 -1.2859953000 0.0000000000
H -5.2217554000 0.3589579000 0.0000000000
H -3.0673416000 1.4911207000 0.0000000000
H -1.8632660000 -1.3695558000 0.0000000000
H -0.6088279000 1.4269166000 0.0000000000
H 0.6088279000 -1.4269166000 0.0000000000
H 1.8632660000 1.3695558000 0.0000000000
H 3.0673416000 -1.4911207000 0.0000000000
H 4.3830321000 1.2859953000 0.0000000000
H 5.2217554000 -0.3589579000 0.0000000000

p8.wfx

