%nprocs=4
%mem=2GB
#p pbepbe aug-cc-pvtz output=wfx scf=(conver=6) int=(grid=ultrafine)

title

0 1
C 0.6630413000 0.0000000000 0.0000000000
C -0.6630413000 0.0000000000 0.0000000000
H 1.2338623000 0.9218215000 0.0000000000
H 1.2338623000 -0.9218215000 0.0000000000
H -1.2338623000 -0.9218215000 0.0000000000
H -1.2338623000 0.9218215000 0.0000000000

p2.wfx

