%nprocs=4
%mem=2GB
#p pbepbe aug-cc-pvtz output=wfx scf=(conver=6) int=(grid=ultrafine)

title

1 1
C 0.6094085000 0.0000000000 0.2226866000
H 1.6886612000 0.0000000000 0.2335521000
C -0.6094085000 0.0000000000 0.2226866000
H -1.6886612000 0.0000000000 0.2335521000
H 0.0000000000 0.0000000000 -0.9124773000

c2h2p.wfx

