%nprocs=4
%mem=2GB
#p pbepbe aug-cc-pvtz output=wfx scf=(conver=6) int=(grid=ultrafine)

title

1 1
N 0.0000000000 0.0000000000 0.0000000000
H 0.5918670000 -0.5918670000 0.5918670000
H -0.5918670000 0.5918670000 0.5918670000
H -0.5918670000 -0.5918670000 -0.5918670000
H 0.5918670000 0.5918670000 -0.5918670000

nh3p.wfx

