%nprocs=4
%mem=2GB
#p pbepbe aug-cc-pvtz output=wfx scf=(conver=6) int=(grid=ultrafine)

title

1 1
N -2.1495290000 -0.3973176000 0.0000000000
C -2.6009393000 0.8564210000 0.0000000000
N -1.5800015000 1.6808618000 0.0000000000
C -0.4198591000 0.9439853000 0.0000000000
C 0.9548617000 1.3158744000 0.0000000000
O 1.4284312000 2.4325886000 0.0000000000
N 1.7502172000 0.1731247000 0.0000000000
C 1.3039583000 -1.1207602000 0.0000000000
N 2.2194708000 -2.0802945000 0.0000000000
N 0.0248926000 -1.4386944000 0.0000000000
C -0.7798952000 -0.3816016000 0.0000000000
H -2.7384989000 -1.2211441000 0.0000000000
H 3.2085764000 -1.8946105000 0.0000000000
H 1.9230259000 -3.0423765000 0.0000000000
H -3.6396024000 1.1435384000 0.0000000000
H 2.7505653000 0.3395049000 0.0000000000
H -1.6556740000 2.6909003000 0.0000000000

Gp.wfx

