%nprocs=4
%mem=2GB
#p pbepbe aug-cc-pvtz output=wfx scf=(conver=6) int=(grid=ultrafine)

title

1 1
P 0.0000000000 0.0000000000 0.0000000000
H 0.8072586000 -0.8072586000 0.8072586000
H -0.8072586000 0.8072586000 0.8072586000
H -0.8072586000 -0.8072586000 -0.8072586000
H 0.8072586000 0.8072586000 -0.8072586000

ph3p.wfx

