%nprocs=4
%mem=2GB
#p pbepbe aug-cc-pvtz output=wfx scf=(conver=6) int=(grid=ultrafine)

title

1 1
C 0.0623612000 -1.2645488000 0.0000000000
C 1.3009983000 -0.5630411000 0.0000000000
C 1.2896020000 0.7829269000 0.0000000000
C 0.0422653000 1.5553591000 0.0000000000
C -1.1936433000 0.7657106000 0.0000000000
C -1.1858447000 -0.5813714000 0.0000000000
O 0.1354984000 -2.5515201000 0.0000000000
H 2.2247691000 -1.1276125000 0.0000000000
H 2.2233162000 1.3320326000 0.0000000000
H 0.0361221000 2.2474933000 -0.8557127000
H -2.1357382000 1.3003304000 0.0000000000
H -2.1083822000 -1.1506266000 0.0000000000
H -0.7274465000 -2.9926258000 0.0000000000
H 0.0361221000 2.2474933000 0.8557127000

phenolp.wfx

