%nprocs=4
%mem=2GB
#p pbepbe aug-cc-pvtz output=wfx scf=(conver=6) int=(grid=ultrafine)

title

0 1
N -0.3310925000 1.7571570000 0.0000000000
N 1.6526263000 0.6161452000 0.0000000000
C -0.3970521000 -0.6202242000 0.0000000000
C 1.0540466000 -0.6322768000 0.0000000000
C -1.0120744000 0.5754960000 0.0000000000
C 1.0302019000 1.8378491000 0.0000000000
C -1.1307329000 -1.9207587000 0.0000000000
O 1.7384814000 -1.6383625000 0.0000000000
O 1.6383340000 2.8885894000 0.0000000000
H -0.8449561000 2.6266569000 0.0000000000
H 2.6662888000 0.6355064000 0.0000000000
H -2.0900023000 0.6707908000 0.0000000000
H -0.8829150000 -2.5191781000 -0.8785562000
H -0.8829150000 -2.5191781000 0.8785562000
H -2.2082386000 -1.7582124000 0.0000000000

T.wfx

