%nprocs=4
%mem=4GB
#p pbepbe aug-cc-pvtz output=wfx scf=(conver=6) int=(grid=ultrafine)

title

0 1
C 0.983670000000000 0.397330000000000 0.964770000000000
C 1.777230000000000 0.584230000000000 2.024030000000000
C 3.182220000000000 0.976770000000000 1.925530000000000
C 3.975740000000000 1.163800000000000 2.984790000000000
H -0.050910000000000 0.107260000000000 1.077730000000000
H 1.354610000000000 0.531530000000000 -0.043440000000000
H 1.381640000000000 0.443480000000000 3.023900000000000
H 3.577760000000000 1.117660000000000 0.925660000000000
H 5.010230000000000 1.454210000000000 2.871840000000000
H 3.604810000000000 1.029540000000000 3.993000000000000

1_3-Butadiene.wfx

