%nprocs=4
%mem=4GB
#p pbepbe aug-cc-pvtz output=wfx scf=(conver=6) int=(grid=ultrafine)

title

0 1
C 0.962810000000000 0.992850000000000 1.378970000000000
C 2.099210000000000 1.891400000000000 0.973950000000000
C 3.471580000000000 1.430480000000000 1.382570000000000
C 1.902740000000000 3.023270000000000 0.296050000000000
H 1.083030000000000 -0.000760000000000 0.940570000000000
H 0.943440000000000 0.860950000000000 2.463400000000000
H 0.001680000000000 1.395040000000000 1.063160000000000
H 3.536980000000000 1.332940000000000 2.468870000000000
H 3.688520000000000 0.445670000000000 0.961940000000000
H 4.242490000000000 2.124350000000000 1.051660000000000
H 2.730050000000000 3.659320000000000 0.011040000000000
H 0.909660000000000 3.342180000000000 0.009120000000000

2-Methylpropene.wfx

