%nprocs=4
%mem=4GB
#p pbepbe aug-cc-pvtz output=wfx scf=(conver=6) int=(grid=ultrafine)

title

1 2
C 2.699030000000000 2.337050000000000 0.220790000000000
C 1.824120000000000 1.145990000000000 0.368560000000000
O 0.525800000000000 1.467420000000000 0.196290000000000
O 2.192890000000000 0.026880000000000 0.609980000000000
C 4.018340000000000 2.219860000000000 0.356530000000000
H 2.217830000000000 3.278740000000000 0.002870000000000
H 0.031180000000000 0.647240000000000 0.307270000000000
H 4.672610000000000 3.073110000000000 0.253010000000000
H 4.458310000000000 1.256810000000000 0.574910000000000

2-Propenoic_acid+.wfx

