%nprocs=4
%mem=4GB
#p pbepbe aug-cc-pvtz output=wfx scf=(conver=6) int=(grid=ultrafine)

title

1 2
C 1.077610000000000 1.100680000000000 0.965080000000000
C 0.443650000000000 -0.217970000000000 0.634000000000000
C 0.643580000000000 -1.332050000000000 1.336400000000000
O 0.112580000000000 2.124530000000000 1.161410000000000
H 1.726470000000000 0.989900000000000 1.839430000000000
H 1.695360000000000 1.442060000000000 0.134520000000000
H -0.222370000000000 -0.223080000000000 -0.221430000000000
H 1.299570000000000 -1.339950000000000 2.198170000000000
H 0.169300000000000 -2.265850000000000 1.068760000000000
H -0.474370000000000 1.831320000000000 1.860160000000000

2-Propen-1-ol+.wfx

