%nprocs=4
%mem=4GB
#p pbepbe aug-cc-pvtz output=wfx scf=(conver=6) int=(grid=ultrafine)

title

0 1
C 2.343490000000000 -4.720160000000000 0.516260000000000
C 3.378770000000000 -3.934040000000000 0.216570000000000
C 3.292790000000000 -2.465870000000000 0.081790000000000
C 4.436150000000000 -1.730220000000000 -0.235610000000000
N 2.098500000000000 -1.885660000000000 0.272940000000000
C 4.343480000000000 -0.349550000000000 -0.359840000000000
C 2.024440000000000 -0.563810000000000 0.150910000000000
C 3.109150000000000 0.253220000000000 -0.162620000000000
H 2.465300000000000 -5.790420000000000 0.601510000000000
H 1.362160000000000 -4.298620000000000 0.679380000000000
H 4.359030000000000 -4.366130000000000 0.055250000000000
H 5.378450000000000 -2.239080000000000 -0.381080000000000
H 5.215920000000000 0.239860000000000 -0.604930000000000
H 1.046040000000000 -0.128110000000000 0.311720000000000
H 2.980640000000000 1.322080000000000 -0.246840000000000

2-Vinylpyridine.wfx

