%nprocs=4
%mem=4GB
#p pbepbe aug-cc-pvtz output=wfx scf=(conver=6) int=(grid=ultrafine)

title

0 1
C 0.840730000000000 1.190340000000000 1.605470000000000
C 1.766410000000000 2.223050000000000 1.093720000000000
C 2.861260000000000 2.551280000000000 1.782070000000000
O -0.166860000000000 0.842130000000000 1.038500000000000
H 1.137230000000000 0.741660000000000 2.570760000000000
H 1.510210000000000 2.686250000000000 0.150610000000000
H 3.556830000000000 3.300180000000000 1.432390000000000
H 3.086500000000000 2.068550000000000 2.725110000000000

Acrolein.wfx

