%nprocs=4
%mem=4GB
#p pbepbe aug-cc-pvtz output=wfx scf=(conver=6) int=(grid=ultrafine)

title

1 2
C 1.142120000000000 0.847930000000000 0.156170000000000
C 2.574010000000000 0.960230000000000 0.067630000000000
C 3.195140000000000 2.140760000000000 0.066080000000000
N -0.007020000000000 0.739640000000000 0.226720000000000
H 3.120500000000000 0.030700000000000 0.002280000000000
H 4.271590000000000 2.192800000000000 -0.001420000000000
H 2.644960000000000 3.068120000000000 0.131650000000000

Acrylonitrile+.wfx

