%nprocs=4
%mem=4GB
#p pbepbe aug-cc-pvtz output=wfx scf=(conver=6) int=(grid=ultrafine)

title

1 2
Al 0.000000000000000 0.000000000000000 0.000000000000000
Cl 0.000000000000000 2.080980000000000 0.000000000000000
Cl 1.802180000000000 -1.040490000000000 0.000000000000000
Cl -1.802180000000000 -1.040490000000000 0.000000000000000

AlCl3+.wfx

