%nprocs=4
%mem=4GB
#p pbepbe aug-cc-pvtz output=wfx scf=(conver=6) int=(grid=ultrafine)

title

1 2
C 0.000000000000000 1.218950000000000 0.719920000000000
C 0.000000000000000 1.218950000000000 -0.719920000000000
C 0.000000000000000 0.000000000000000 1.398190000000000
C 0.000000000000000 2.470980000000000 1.401490000000000
C 0.000000000000000 0.000000000000000 -1.398190000000000
C 0.000000000000000 2.470980000000000 -1.401490000000000
C 0.000000000000000 -1.218950000000000 0.719920000000000
C 0.000000000000000 3.646290000000000 0.710770000000000
C 0.000000000000000 -1.218950000000000 -0.719920000000000
C 0.000000000000000 3.646290000000000 -0.710770000000000
C 0.000000000000000 -2.470980000000000 1.401490000000000
C 0.000000000000000 -2.470980000000000 -1.401490000000000
C 0.000000000000000 -3.646290000000000 0.710770000000000
C 0.000000000000000 -3.646290000000000 -0.710770000000000
H 0.000000000000000 0.000000000000000 2.481800000000000
H 0.000000000000000 2.469990000000000 2.484200000000000
H 0.000000000000000 0.000000000000000 -2.481800000000000
H 0.000000000000000 2.469990000000000 -2.484200000000000
H 0.000000000000000 4.588890000000000 1.241570000000000
H 0.000000000000000 4.588890000000000 -1.241570000000000
H 0.000000000000000 -2.469990000000000 2.484200000000000
H 0.000000000000000 -2.469990000000000 -2.484200000000000
H 0.000000000000000 -4.588890000000000 1.241570000000000
H 0.000000000000000 -4.588890000000000 -1.241570000000000

Anthracene+.wfx

