%nprocs=4
%mem=4GB
#p pbepbe aug-cc-pvtz output=wfx scf=(conver=6) int=(grid=ultrafine)

title

0 1
C 0.000000000000000 0.000000000000000 1.390440000000000
C 0.000000000000000 1.204110000000000 0.695210000000000
C 0.000000000000000 -1.204110000000000 0.695210000000000
C 0.000000000000000 1.204110000000000 -0.695210000000000
C 0.000000000000000 -1.204110000000000 -0.695210000000000
C 0.000000000000000 0.000000000000000 -1.390440000000000
H 0.000000000000000 0.000000000000000 2.472470000000000
H 0.000000000000000 2.141170000000000 1.236230000000000
H 0.000000000000000 -2.141170000000000 1.236230000000000
H 0.000000000000000 2.141170000000000 -1.236230000000000
H 0.000000000000000 -2.141170000000000 -1.236230000000000
H 0.000000000000000 0.000000000000000 -2.472470000000000

Benzene.wfx

