%nprocs=4
%mem=4GB
#p pbepbe aug-cc-pvtz output=wfx scf=(conver=6) int=(grid=ultrafine)

title

0 1
B 0.000000000000000 0.000000000000000 0.000000000000000
F 0.000000000000000 1.309690000000000 0.000000000000000
F 1.134220000000000 -0.654840000000000 0.000000000000000
F -1.134220000000000 -0.654840000000000 0.000000000000000

BF3.wfx

