%nprocs=4
%mem=4GB
#p pbepbe aug-cc-pvtz output=wfx scf=(conver=6) int=(grid=ultrafine)

title

1 2
C 0.000000000000000 -0.000000000000000 0.660060000000000
C 0.000000000000000 -0.000000000000000 -0.660060000000000
F 0.000000000000000 1.095390000000000 1.381650000000000
F 0.000000000000000 -1.095390000000000 1.381650000000000
F 0.000000000000000 -1.095390000000000 -1.381650000000000
F 0.000000000000000 1.095390000000000 -1.381650000000000

C2F4+.wfx

