%nprocs=4
%mem=4GB
#p pbepbe aug-cc-pvtz output=wfx scf=(conver=6) int=(grid=ultrafine)

title

0 1
C 0.930630000000000 -0.034680000000000 -0.071430000000000
C 2.261800000000000 -0.034960000000000 -0.071250000000000
H 0.365590000000000 0.680450000000000 -0.653690000000000
H 0.365140000000000 -0.749650000000000 0.510600000000000
H 2.827290000000000 0.679980000000000 -0.653310000000000
H 2.826840000000000 -0.750130000000000 0.510980000000000

C2H4.wfx

