%nprocs=4
%mem=4GB
#p pbepbe aug-cc-pvtz output=wfx scf=(conver=6) int=(grid=ultrafine)

title

1 2
C 3.259740000000000 1.786700000000000 0.135260000000000
C 2.143400000000000 1.174740000000000 0.088910000000000
C 1.027030000000000 0.562840000000000 0.042570000000000
O 4.273030000000000 2.342170000000000 0.177330000000000
O 0.013700000000000 0.007450000000000 0.000540000000000

C3O2+.wfx

