%nprocs=4
%mem=4GB
#p pbepbe aug-cc-pvtz output=wfx scf=(conver=6) int=(grid=ultrafine)

title

1 2
C -0.000000000000000 -0.000000000000000 0.337490000000000
F 0.000000000000000 1.072130000000000 1.116830000000000
F 0.000000000000000 -1.072130000000000 1.116830000000000
Cl 1.457350000000000 0.000000000000000 -0.653920000000000
Cl -1.457350000000000 0.000000000000000 -0.653920000000000

CCl2F2+.wfx

