%nprocs=4
%mem=4GB
#p pbepbe aug-cc-pvtz output=wfx scf=(conver=6) int=(grid=ultrafine)

title

0 1
C 0.000000000000000 0.000000000000000 0.476960000000000
H -0.000000000000000 -0.000000000000000 1.556390000000000
Cl -0.000000000000000 1.683300000000000 -0.064180000000000
Cl 1.457780000000000 -0.841650000000000 -0.064180000000000
Cl -1.457780000000000 -0.841650000000000 -0.064180000000000

CCl3H.wfx

