%nprocs=4
%mem=4GB
#p pbepbe aug-cc-pvtz output=wfx scf=(conver=6) int=(grid=ultrafine)

title

0 1
Cl -0.016810000000000 2.052150000000000 2.168820000000000
C 1.167020000000000 1.106490000000000 1.250650000000000
Cl 0.335540000000000 0.190990000000000 -0.017940000000000
Cl 1.999030000000000 -0.015950000000000 2.340000000000000
Cl 2.350220000000000 2.198620000000000 0.511760000000000

CCl4.wfx

