%nprocs=4
%mem=4GB
#p pbepbe aug-cc-pvtz output=wfx scf=(conver=6) int=(grid=ultrafine)

title

1 2
O 0.000000000000000 0.000000000000000 1.310400000000000
C 0.000000000000000 0.000000000000000 0.139870000000000
F 0.000000000000000 1.057280000000000 -0.628740000000000
F 0.000000000000000 -1.057280000000000 -0.628740000000000

CF2O+.wfx

