%nprocs=4
%mem=4GB
#p pbepbe aug-cc-pvtz output=wfx scf=(conver=6) int=(grid=ultrafine)

title

0 1
C 1.147380000000000 0.936250000000000 1.205980000000000
C 2.576510000000000 1.013510000000000 0.798030000000000
F 2.802330000000000 2.141460000000000 0.145240000000000
F 2.879640000000000 -0.004360000000000 0.009720000000000
F 3.356480000000000 0.974200000000000 1.865500000000000
N 0.040650000000000 0.876340000000000 1.521850000000000

CF3CN.wfx

