%nprocs=4
%mem=4GB
#p pbepbe aug-cc-pvtz output=wfx scf=(conver=6) int=(grid=ultrafine)

title

0 1
F 1.303650000000000 0.021020000000000 0.249560000000000
C 1.093040000000000 1.266580000000000 0.613280000000000
F 0.920860000000000 1.319680000000000 1.915430000000000
F 0.018040000000000 1.723400000000000 0.010140000000000
F 2.129610000000000 2.002230000000000 0.277990000000000

CF4.wfx

