%nprocs=4
%mem=4GB
#p pbepbe aug-cc-pvtz output=wfx scf=(conver=6) int=(grid=ultrafine)

title

1 2
Cl 1.730320000000000 2.161340000000000 2.651220000000000
C 1.234540000000000 1.143900000000000 1.294940000000000
Cl 0.021080000000000 -0.029830000000000 1.814990000000000
Cl 0.607210000000000 2.136790000000000 -0.024550000000000
F 2.302450000000000 0.479600000000000 0.852800000000000

CFCl3+.wfx

