%nprocs=4
%mem=4GB
#p pbepbe aug-cc-pvtz output=wfx scf=(conver=6) int=(grid=ultrafine)

title

1 2
C 0.000000000000000 0.000000000000000 -0.000000000000000
C 0.000000000000000 0.000000000000000 1.307850000000000
C 0.000000000000000 0.000000000000000 -1.307850000000000
H -0.000000000000000 0.927620000000000 1.863350000000000
H 0.000000000000000 -0.927620000000000 1.863350000000000
H 0.927620000000000 -0.000000000000000 -1.863350000000000
H -0.927620000000000 0.000000000000000 -1.863350000000000

CH2CCH2+.wfx

