%nprocs=4
%mem=4GB
#p pbepbe aug-cc-pvtz output=wfx scf=(conver=6) int=(grid=ultrafine)

title

0 1
C 0.000000000000000 0.000000000000000 0.001230000000000
C 0.000000000000000 0.000000000000000 1.315130000000000
O 0.000000000000000 0.000000000000000 2.475080000000000
H 0.000000000000000 0.940220000000000 -0.521320000000000
H 0.000000000000000 -0.940220000000000 -0.521320000000000

CH2CO.wfx

