%nprocs=4
%mem=4GB
#p pbepbe aug-cc-pvtz output=wfx scf=(conver=6) int=(grid=ultrafine)

title

1 2
F -0.030460000000000 0.022890000000000 1.320530000000000
C 0.749700000000000 0.976530000000000 0.768770000000000
F 1.813200000000000 0.380280000000000 0.189160000000000
H 1.103850000000000 1.639390000000000 1.555280000000000
H 0.179000000000000 1.498210000000000 0.003560000000000

CH2F2+.wfx

