%nprocs=4
%mem=4GB
#p pbepbe aug-cc-pvtz output=wfx scf=(conver=6) int=(grid=ultrafine)

title

1 2
C 1.064930000000000 0.077300000000000 -0.057050000000000
O 2.267970000000000 0.077280000000000 -0.057030000000000
H 0.482800000000000 -0.605340000000000 -0.695420000000000
H 0.482800000000000 0.759950000000000 0.581310000000000

CH2O+.wfx

