%nprocs=4
%mem=4GB
#p pbepbe aug-cc-pvtz output=wfx scf=(conver=6) int=(grid=ultrafine)

title

0 2
C -0.000010000000000 0.000000000000000 0.000000000000000
H 1.077530000000000 0.000000000000000 0.000000000000000
H -0.538760000000000 -0.933150000000000 0.000000000000000
H -0.538760000000000 0.933150000000000 0.000000000000000

CH3.wfx

