%nprocs=4
%mem=4GB
#p pbepbe aug-cc-pvtz output=wfx scf=(conver=6) int=(grid=ultrafine)

title

0 1
C 0.381740000000000 0.843880000000000 0.590440000000000
C 1.846420000000000 0.844570000000000 0.609270000000000
C 3.050760000000000 0.845120000000000 0.624750000000000
H 0.003990000000000 1.766070000000000 0.150960000000000
H 0.006710000000000 0.006150000000000 0.004060000000000
H -0.014180000000000 0.758870000000000 1.601530000000000
H 4.111680000000000 0.845630000000000 0.638390000000000

CH3CCH.wfx

