%nprocs=4
%mem=4GB
#p pbepbe aug-cc-pvtz output=wfx scf=(conver=6) int=(grid=ultrafine)

title

1 2
H 0.545780000000000 1.763010000000000 0.002300000000000
C 0.718340000000000 0.897960000000000 0.643120000000000
H 0.496300000000000 0.004240000000000 0.059440000000000
H 0.000650000000000 0.944780000000000 1.462540000000000
C 2.152340000000000 0.874540000000000 1.165290000000000
H 2.325130000000000 0.009040000000000 1.805420000000000
H 2.870040000000000 0.828570000000000 0.345830000000000
H 2.374110000000000 1.767870000000000 1.749660000000000

CH3CH3+.wfx

