%nprocs=4
%mem=4GB
#p pbepbe aug-cc-pvtz output=wfx scf=(conver=6) int=(grid=ultrafine)

title

1 2
C 19.956859999999999 0.000030000000000 -0.000030000000000
C 21.162649999999999 0.000110000000000 0.000050000000000
C 18.496530000000000 0.000030000000000 -0.000110000000000
C 22.546150000000001 0.000070000000000 0.000030000000000
N 23.704300000000000 0.000050000000000 0.000030000000000
H 18.119550000000000 1.021590000000000 0.000120000000000
H 18.119579999999999 -0.510520000000000 -0.884940000000000
H 18.119489999999999 -0.510950000000000 0.884440000000000

CH3CCCN+.wfx

