%nprocs=4
%mem=4GB
#p pbepbe aug-cc-pvtz output=wfx scf=(conver=6) int=(grid=ultrafine)

title

0 1
C 0.012950000000000 0.528370000000000 -0.000000000000000
C 1.502520000000000 0.707100000000000 0.000000000000000
O -0.814150000000000 1.374140000000000 -0.000000000000000
Cl -0.454750000000000 -1.205080000000000 0.000000000000000
H 1.735060000000000 1.768060000000000 0.000000000000000
H 1.922790000000000 0.222710000000000 0.879370000000000
H 1.922790000000000 0.222710000000000 -0.879370000000000

CH3CClO.wfx

