%nprocs=4
%mem=4GB
#p pbepbe aug-cc-pvtz output=wfx scf=(conver=6) int=(grid=ultrafine)

title

1 2
C 1.595370000000000 -0.358070000000000 0.000590000000000
C 0.473120000000000 0.659360000000000 0.002290000000000
H 2.557070000000000 0.157810000000000 0.003230000000000
H 1.543240000000000 -0.989680000000000 -0.884560000000000
H 1.541150000000000 -0.994840000000000 0.881900000000000
Cl -1.132370000000000 -0.148580000000000 -0.002930000000000
H 0.500790000000000 1.292610000000000 -0.879490000000000
H 0.497930000000000 1.286700000000000 0.888370000000000

CH3CH2Cl+.wfx

