%nprocs=4
%mem=4GB
#p pbepbe aug-cc-pvtz output=wfx scf=(conver=6) int=(grid=ultrafine)

title

0 1
C 1.164330000000000 -0.373020000000000 0.000000000000000
C -0.026830000000000 0.560770000000000 0.000000000000000
O -1.201590000000000 -0.237770000000000 0.000000000000000
H -1.959340000000000 0.347070000000000 -0.000000000000000
H 2.095390000000000 0.194160000000000 -0.000000000000000
H 1.144160000000000 -1.010160000000000 0.883360000000000
H 1.144160000000000 -1.010160000000000 -0.883360000000000
H 0.003560000000000 1.205500000000000 0.884070000000000
H 0.003560000000000 1.205500000000000 -0.884070000000000

CH3CH2OH.wfx

