%nprocs=4
%mem=4GB
#p pbepbe aug-cc-pvtz output=wfx scf=(conver=6) int=(grid=ultrafine)

title

0 1
C 0.000000000000000 -0.000000000000000 0.602520000000000
C 0.000000000000000 -0.000000000000000 -0.602520000000000
C 0.000000000000000 -0.000000000000000 2.068240000000000
C -0.000000000000000 -0.000000000000000 -2.068240000000000
H -0.000000000000000 1.018780000000000 2.454760000000000
H -0.882290000000000 -0.509390000000000 2.454760000000000
H 0.882290000000000 -0.509390000000000 2.454760000000000
H -0.000000000000000 1.018780000000000 -2.454760000000000
H 0.882290000000000 -0.509390000000000 -2.454760000000000
H -0.882290000000000 -0.509390000000000 -2.454760000000000

CH3CCCH3.wfx

