%nprocs=4
%mem=4GB
#p pbepbe aug-cc-pvtz output=wfx scf=(conver=6) int=(grid=ultrafine)

title

0 1
C 0.407880000000000 0.895380000000000 0.519580000000000
C 1.871070000000000 0.942530000000000 0.489520000000000
N 3.024700000000000 0.979720000000000 0.465820000000000
H -0.000080000000000 1.775870000000000 0.028600000000000
H 0.056460000000000 0.005150000000000 0.003100000000000
H 0.060380000000000 0.869440000000000 1.549790000000000

CH3CN.wfx

