%nprocs=4
%mem=4GB
#p pbepbe aug-cc-pvtz output=wfx scf=(conver=6) int=(grid=ultrafine)

title

0 1
H 0.007010000000000 1.191220000000000 1.618470000000000
C 0.649570000000000 0.987330000000000 0.769210000000000
H 0.513680000000000 1.741850000000000 0.002450000000000
H 0.445590000000000 0.000460000000000 0.369000000000000
Cl 2.347950000000000 1.036540000000000 1.318470000000000

CH3Cl.wfx

