%nprocs=4
%mem=4GB
#p pbepbe aug-cc-pvtz output=wfx scf=(conver=6) int=(grid=ultrafine)

title

0 1
C 1.394880000000000 -0.009610000000000 0.000000000000000
N -0.092880000000000 -0.006600000000000 -0.000000000000000
H 1.732950000000000 -1.037470000000000 -0.000000000000000
H 1.715610000000000 0.526180000000000 0.887310000000000
H 1.715610000000000 0.526180000000000 -0.887310000000000
O -0.630370000000000 1.081640000000000 -0.000000000000000
O -0.657900000000000 -1.080310000000000 0.000000000000000

CH3NO2.wfx

