%nprocs=4
%mem=4GB
#p pbepbe aug-cc-pvtz output=wfx scf=(conver=6) int=(grid=ultrafine)

title

0 1
C 0.888640000000000 0.060600000000000 -0.021400000000000
N 2.057350000000000 0.060600000000000 -0.021390000000000
C 3.481380000000000 0.060600000000000 -0.021380000000000
H 3.844650000000000 0.627070000000000 -0.874920000000000
H 3.844640000000000 -0.961830000000000 -0.085180000000000
H 3.844630000000000 0.516560000000000 0.895980000000000

CH3NC.wfx

