%nprocs=4
%mem=4GB
#p pbepbe aug-cc-pvtz output=wfx scf=(conver=6) int=(grid=ultrafine)

title

1 2
N 0.089390000000000 -0.554940000000000 -0.000000000000000
H -0.654140000000000 -1.239410000000000 0.000000000000000
C -0.018910000000000 0.255690000000000 1.203970000000000
C -0.018910000000000 0.255690000000000 -1.203970000000000
H -0.925800000000000 0.876120000000000 1.239750000000000
H -0.925800000000000 0.876120000000000 -1.239750000000000
H 0.841180000000000 0.924120000000000 1.264760000000000
H 0.841180000000000 0.924120000000000 -1.264760000000000
H -0.003990000000000 -0.385450000000000 2.084380000000000
H -0.003990000000000 -0.385450000000000 -2.084380000000000

CH3NHCH3+.wfx

