%nprocs=4
%mem=4GB
#p pbepbe aug-cc-pvtz output=wfx scf=(conver=6) int=(grid=ultrafine)

title

0 1
H 0.237750000000000 0.842710000000000 1.594500000000000
C 0.674910000000000 0.985810000000000 0.602960000000000
H -0.023920000000000 1.564500000000000 0.003760000000000
H 0.802290000000000 0.008470000000000 0.130400000000000
O 1.884710000000000 1.719820000000000 0.651210000000000
H 2.509160000000000 1.220290000000000 1.176370000000000

CH3OH.wfx

