%nprocs=4
%mem=4GB
#p pbepbe aug-cc-pvtz output=wfx scf=(conver=6) int=(grid=ultrafine)

title

1 2
C 0.811750000000000 0.990950000000000 0.881810000000000
H -0.002680000000000 0.294760000000000 0.696320000000000
H 0.954270000000000 1.606600000000000 -0.001720000000000
H 0.554730000000000 1.611060000000000 1.735850000000000
S 2.284400000000000 -0.023800000000000 1.223030000000000
H 3.135830000000000 0.991130000000000 1.416210000000000

CH3SH+.wfx

