%nprocs=4
%mem=4GB
#p pbepbe aug-cc-pvtz output=wfx scf=(conver=6) int=(grid=ultrafine)

title

0 1
C 1.065000000000000 -0.033340000000000 -0.068260000000000
H 2.152700000000000 -0.033360000000000 -0.068280000000000
H 0.702440000000000 -0.405630000000000 0.887280000000000
H 0.702400000000000 -0.674700000000000 -0.868440000000000
H 0.702450000000000 0.980330000000000 -0.223600000000000

CH4.wfx

