%nprocs=4
%mem=4GB
#p pbepbe aug-cc-pvtz output=wfx scf=(conver=6) int=(grid=ultrafine)

title

0 1
F 2.029940000000000 0.065070000000000 0.449690000000000
C 0.956220000000000 0.685540000000000 0.926870000000000
F 0.002140000000000 0.650360000000000 0.002720000000000
F 0.529870000000000 0.027730000000000 1.999750000000000
H 1.196030000000000 1.712500000000000 1.183680000000000

CHF3.wfx

