%nprocs=4
%mem=4GB
#p pbepbe aug-cc-pvtz output=wfx scf=(conver=6) int=(grid=ultrafine)

title

1 2
C 1.806810000000000 0.902750000000000 0.758190000000000
C 0.753200000000000 0.813590000000000 1.558210000000000
Cl 0.407070000000000 1.976870000000000 2.799500000000000
H 2.515420000000000 1.713970000000000 0.832820000000000
H 1.967430000000000 0.143860000000000 0.006110000000000
H 0.027570000000000 0.017260000000000 1.506060000000000

Chloroethene+.wfx

