%nprocs=4
%mem=4GB
#p pbepbe aug-cc-pvtz output=wfx scf=(conver=6) int=(grid=ultrafine)

title

1 2
F 1.007890000000000 0.147090000000000 -0.001060000000000
C 2.311490000000000 0.073620000000000 0.059540000000000
C 2.975180000000000 -0.813130000000000 0.791010000000000
Cl 4.693340000000000 -0.835800000000000 0.809740000000000
Cl 2.141590000000000 -1.972380000000000 1.747170000000000
F 2.880810000000000 0.981300000000000 -0.689100000000000

Cl2CCF2+.wfx

