%nprocs=4
%mem=4GB
#p pbepbe aug-cc-pvtz output=wfx scf=(conver=6) int=(grid=ultrafine)

title

1 2
Cl 0.000000000000000 0.000000000000000 0.367020000000000
F 0.000000000000000 0.000000000000000 -1.230080000000000
F 0.000000000000000 1.691530000000000 0.272830000000000
F 0.000000000000000 -1.691530000000000 0.272830000000000

ClF3+.wfx

