%nprocs=4
%mem=4GB
#p pbepbe aug-cc-pvtz output=wfx scf=(conver=6) int=(grid=ultrafine)

title

0 1
N -0.003350000000000 0.847570000000000 -0.212620000000000
H -0.015030000000000 1.408670000000000 0.629670000000000
C -0.737570000000000 -0.402940000000000 0.032050000000000
C 0.742200000000000 -0.393260000000000 0.046350000000000
H -1.251360000000000 -0.522380000000000 0.976220000000000
H -1.261200000000000 -0.792850000000000 -0.828600000000000
H 1.287860000000000 -0.776690000000000 -0.803490000000000
H 1.238740000000000 -0.505820000000000 1.000520000000000

Ethylenimine.wfx

