%nprocs=4
%mem=4GB
#p pbepbe aug-cc-pvtz output=wfx scf=(conver=6) int=(grid=ultrafine)

title

0 1
O -0.000000000000000 -0.000000000000000 0.852110000000000
C 0.000000000000000 0.731910000000000 -0.368900000000000
C 0.000000000000000 -0.731910000000000 -0.368900000000000
H -0.917590000000000 1.263220000000000 -0.587800000000000
H 0.917590000000000 1.263220000000000 -0.587800000000000
H 0.917590000000000 -1.263220000000000 -0.587800000000000
H -0.917590000000000 -1.263220000000000 -0.587800000000000

Ethylene_oxide.wfx

