%nprocs=4
%mem=4GB
#p pbepbe aug-cc-pvtz output=wfx scf=(conver=6) int=(grid=ultrafine)

title

1 2
S 0.000000000000000 -0.000010000000000 0.587640000000000
C 0.000000000000000 0.000010000000000 -1.025400000000000
H 0.000000000000000 0.921020000000000 -1.599930000000000
H 0.000000000000000 -0.921020000000000 -1.599910000000000

H2CS+.wfx

