%nprocs=4
%mem=4GB
#p pbepbe aug-cc-pvtz output=wfx scf=(conver=6) int=(grid=ultrafine)

title

0 1
O 0.948240000000000 0.037170000000000 0.085380000000000
O 2.386030000000000 -0.043450000000000 0.124390000000000
H 0.728190000000000 -0.889180000000000 -0.045300000000000
H 2.606040000000000 0.427660000000000 -0.683870000000000

H2O2.wfx

