%nprocs=4
%mem=4GB
#p pbepbe aug-cc-pvtz output=wfx scf=(conver=6) int=(grid=ultrafine)

title

1 2
C -0.069940000000000 0.000000000000000 0.000000000000000
C 1.134000000000000 0.000000000000000 0.000000000000000
C 2.519440000000000 0.000000000000000 0.000000000000000
N 3.676990000000000 0.000000000000000 0.000000000000000
H -1.132490000000000 0.000000000000000 0.000000000000000

HCCCN+.wfx

