%nprocs=4
%mem=4GB
#p pbepbe aug-cc-pvtz output=wfx scf=(conver=6) int=(grid=ultrafine)

title

1 2
C 2.250450000000000 0.037590000000000 0.132880000000000
C 3.631450000000000 0.060640000000000 0.082400000000000
C 4.837160000000000 0.080760000000000 0.038280000000000
C 1.044730000000000 0.017460000000000 0.176930000000000
H 5.898330000000000 0.098520000000000 -0.000520000000000
H -0.016430000000000 -0.000270000000000 0.215730000000000

HCCCCH+.wfx

