%nprocs=4
%mem=4GB
#p pbepbe aug-cc-pvtz output=wfx scf=(conver=6) int=(grid=ultrafine)

title

0 1
O 0.949270000000000 -0.006910000000000 -0.026850000000000
C 2.152560000000000 -0.065360000000000 -0.061590000000000
C 2.888120000000000 -1.147600000000000 -0.704980000000000
C 3.541340000000000 -2.018610000000000 -1.222790000000000
H 2.782380000000000 0.707920000000000 0.398120000000000
H 4.101530000000000 -2.794450000000000 -1.684020000000000

HCCCHO.wfx

