%nprocs=4
%mem=4GB
#p pbepbe aug-cc-pvtz output=wfx scf=(conver=6) int=(grid=ultrafine)

title

0 1
C 1.021020000000000 -0.056000000000000 -0.071800000000000
C 2.227690000000000 -0.056000000000000 -0.071800000000000
C 3.604350000000000 -0.056000000000000 -0.071800000000000
C 4.813050000000000 -0.056000000000000 -0.071800000000000
C 6.194100000000000 -0.056000000000000 -0.071800000000000
N 7.352500000000000 -0.056000000000000 -0.071800000000000
H -0.041510000000000 -0.056000000000000 -0.071800000000000

HCCCCCN.wfx

