%nprocs=4
%mem=4GB
#p pbepbe aug-cc-pvtz output=wfx scf=(conver=6) int=(grid=ultrafine)

title

1 2
C 0.000000000000000 0.000000000000000 -0.093430000000000
C 0.000000000000000 0.000000000000000 -1.289350000000000
F 0.000000000000000 0.000000000000000 1.184730000000000
H 0.000000000000000 0.000000000000000 -2.348750000000000

HCCF+.wfx

