%nprocs=4
%mem=4GB
#p pbepbe aug-cc-pvtz output=wfx scf=(conver=6) int=(grid=ultrafine)

title

1 2
N 33.993980000000001 0.017460000000000 0.000000000000000
C 32.798420000000000 0.659290000000000 0.000000000000000
O 31.720510000000001 0.114080000000000 0.000000000000000
H 34.854129999999998 0.527370000000000 0.000000000000000
H 34.012230000000002 -0.985030000000000 0.000000000000000
H 32.911130000000000 1.753530000000000 0.000000000000000

HCONH2+.wfx

