%nprocs=4
%mem=4GB
#p pbepbe aug-cc-pvtz output=wfx scf=(conver=6) int=(grid=ultrafine)

title

1 2
O 1.913870000000000 0.932940000000000 1.881810000000000
C 0.977370000000000 0.356330000000000 1.114240000000000
O 1.146000000000000 -0.020410000000000 -0.008500000000000
H 2.719020000000000 0.974980000000000 1.351180000000000
H 0.037840000000000 0.281760000000000 1.666570000000000

HCOOH+.wfx

