%nprocs=4
%mem=4GB
#p pbepbe aug-cc-pvtz output=wfx scf=(conver=6) int=(grid=ultrafine)

title

0 1
C 0.00000  6.14946  1.40581
C 0.00000  7.31864  0.71503
C 0.00000  7.31864 -0.71503
C 0.00000  6.14946 -1.40581
C 0.00000  4.88826 -0.72634
C 0.00000  3.68503 -1.40372
C 0.00000  2.44490 -0.72755
C 0.00000  1.22785 -1.40449
C 0.00000  0.00000 -0.72815
C 0.00000 -1.22785 -1.40449
C 0.00000 -2.44490 -0.72755
C 0.00000 -3.68503 -1.40372
C 0.00000 -4.88826 -0.72634
C 0.00000 -6.14946 -1.40581
C 0.00000 -7.31864 -0.71503
C 0.00000 -7.31864  0.71503
C 0.00000 -6.14946  1.40581
C 0.00000 -4.88826  0.72634
C 0.00000 -3.68503  1.40372
C 0.00000 -2.44490  0.72755
C 0.00000 -1.22785  1.40449
C 0.00000  0.00000  0.72815
C 0.00000  1.22785  1.40449
C 0.00000  2.44490  0.72755
C 0.00000  3.68503  1.40372
C 0.00000  4.88826  0.72634
H 0.00000  6.14948  2.48861
H 0.00000  8.26272  1.24328
H 0.00000  8.26272 -1.24328
H 0.00000  6.14948 -2.48861
H 0.00000  3.68599 -2.48732
H 0.00000  1.22824 -2.48797
H 0.00000 -1.22824 -2.48797
H 0.00000 -3.68599 -2.48732
H 0.00000 -6.14948 -2.48861
H 0.00000 -8.26272 -1.24328
H 0.00000 -8.26272  1.24328
H 0.00000 -6.14948  2.48861
H 0.00000 -3.68599  2.48732
H 0.00000 -1.22824  2.48797
H 0.00000  1.22824  2.48797
H 0.00000  3.68599  2.48732

Hexacene.wfx

