%nprocs=4
%mem=4GB
#p pbepbe aug-cc-pvtz output=wfx scf=(conver=6) int=(grid=ultrafine)

title

1 2
C 0.000000000000000 0.000010000000000 0.387070000000000
H 0.000000000000000 0.000000000000000 1.481160000000000
C -0.000000000000000 1.451450000000000 -0.088790000000000
C 1.256990000000000 -0.725710000000000 -0.088800000000000
C -1.256990000000000 -0.725710000000000 -0.088800000000000
H -0.000000000000000 1.494170000000000 -1.180900000000000
H 1.293980000000000 -0.747060000000000 -1.180910000000000
H -1.293980000000000 -0.747060000000000 -1.180910000000000
H 0.883130000000000 1.985140000000000 0.266020000000000
H -0.883130000000000 1.985140000000000 0.266020000000000
H 1.277610000000000 -1.757380000000000 0.266000000000000
H 2.160750000000000 -0.227750000000000 0.266020000000000
H -2.160750000000000 -0.227750000000000 0.266020000000000
H -1.277610000000000 -1.757380000000000 0.266000000000000

Isobutane+.wfx

