%nprocs=4
%mem=4GB
#p pbepbe aug-cc-pvtz output=wfx scf=(conver=6) int=(grid=ultrafine)

title

0 1
C 49.009529999999998 34.014099999999999 0.000160000000000
C 48.240850000000002 32.720930000000003 -0.000000000000000
C 46.908529999999999 32.629710000000003 -0.000030000000000
C 49.032299999999999 31.510840000000002 -0.000060000000000
N 49.696759999999998 30.564190000000000 -0.000090000000000
H 48.324190000000002 34.859000000000002 0.000090000000000
H 49.650649999999999 34.079200000000000 0.879490000000000
H 49.650829999999999 34.079210000000003 -0.879040000000000
H 46.408220000000000 31.672809999999998 0.000230000000000
H 46.299340000000001 33.522399999999998 -0.000430000000000

Methylacrylonitrile.wfx

