%nprocs=4
%mem=4GB
#p pbepbe aug-cc-pvtz output=wfx scf=(conver=6) int=(grid=ultrafine)

title

1 2
O 1.902040000000000 1.167930000000000 0.894850000000000
C 2.226590000000000 2.455500000000000 0.635310000000000
C 1.460010000000000 3.539560000000000 0.767280000000000
C 0.585460000000000 0.953740000000000 1.363740000000000
H 3.246390000000000 2.522240000000000 0.283830000000000
H 0.439920000000000 3.511080000000000 1.115010000000000
H 1.881520000000000 4.498900000000000 0.513310000000000
H 0.414610000000000 1.481680000000000 2.304420000000000
H -0.150480000000000 1.286610000000000 0.628650000000000
H 0.484620000000000 -0.115550000000000 1.522200000000000

Methoxyethene+.wfx

