%nprocs=4
%mem=4GB
#p pbepbe aug-cc-pvtz output=wfx scf=(conver=6) int=(grid=ultrafine)

title

0 1
C 4.070380000000000 1.015410000000000 1.291660000000000
C 2.653030000000000 0.798380000000000 0.898670000000000
O 2.243540000000000 1.755070000000000 0.050300000000000
O 1.951940000000000 -0.104480000000000 1.277370000000000
C 4.672470000000000 0.174100000000000 2.129730000000000
C 0.886620000000000 1.622500000000000 -0.380550000000000
H 4.571850000000000 1.873310000000000 0.868830000000000
H 5.701470000000000 0.315550000000000 2.426880000000000
H 4.132600000000000 -0.673090000000000 2.529390000000000
H 0.707690000000000 2.455870000000000 -1.051840000000000
H 0.741970000000000 0.676990000000000 -0.898570000000000
H 0.210730000000000 1.665770000000000 0.470710000000000

Methyl_prop-2-enoate.wfx

