%nprocs=4
%mem=4GB
#p pbepbe aug-cc-pvtz output=wfx scf=(conver=6) int=(grid=ultrafine)

title

0 1
C 0.000000000000000 0.000000000000000 0.714010000000000
C 0.000000000000000 0.000000000000000 -0.714010000000000
C 0.000000000000000 1.240660000000000 -1.396910000000000
C 0.000000000000000 -1.240660000000000 -1.396910000000000
C 0.000000000000000 -1.240660000000000 1.396910000000000
C 0.000000000000000 1.240660000000000 1.396910000000000
C 0.000000000000000 2.423880000000000 -0.705860000000000
C 0.000000000000000 -2.423880000000000 -0.705860000000000
C 0.000000000000000 -2.423880000000000 0.705860000000000
C 0.000000000000000 2.423880000000000 0.705860000000000
H 0.000000000000000 1.239090000000000 -2.479760000000000
H 0.000000000000000 -1.239090000000000 -2.479760000000000
H 0.000000000000000 -1.239090000000000 2.479760000000000
H 0.000000000000000 1.239090000000000 2.479760000000000
H 0.000000000000000 3.364590000000000 -1.240140000000000
H 0.000000000000000 -3.364590000000000 -1.240140000000000
H 0.000000000000000 -3.364590000000000 1.240140000000000
H 0.000000000000000 3.364590000000000 1.240140000000000

Naphthalene.wfx

