%nprocs=4
%mem=4GB
#p pbepbe aug-cc-pvtz output=wfx scf=(conver=6) int=(grid=ultrafine)

title

1 2
N -0.000010000000000 0.000020000000000 -0.400790000000000
C -0.973490000000000 -0.973520000000000 0.060170000000000
C 1.329840000000000 -0.356280000000000 0.060170000000000
C -0.356370000000000 1.329840000000000 0.060170000000000
H -1.027740000000000 -1.027770000000000 1.160100000000000
H 1.403940000000000 -0.376140000000000 1.160100000000000
H -0.376220000000000 1.403940000000000 1.160110000000000
H -1.962410000000000 -0.713420000000000 -0.316840000000000
H -0.713350000000000 -1.962420000000000 -0.316840000000000
H 1.599050000000000 -1.342750000000000 -0.316850000000000
H 2.056180000000000 0.363470000000000 -0.316830000000000
H 0.363340000000000 2.056220000000000 -0.316840000000000
H -1.342860000000000 1.599000000000000 -0.316830000000000

NC3H9+.wfx

