%nprocs=4
%mem=4GB
#p pbepbe aug-cc-pvtz output=wfx scf=(conver=6) int=(grid=ultrafine)

title

0 1
C 3.734360000000000 0.050800000000000 0.051980000000000
C 2.529240000000000 0.075020000000000 0.035220000000000
C 1.146760000000000 0.102800000000000 0.015990000000000
C 5.116840000000000 0.023020000000000 0.071210000000000
N -0.010580000000000 0.126090000000000 -0.000130000000000
N 6.274180000000000 -0.000230000000000 0.087330000000000

NCCCCN.wfx

