%nprocs=4
%mem=4GB
#p pbepbe aug-cc-pvtz output=wfx scf=(conver=6) int=(grid=ultrafine)

title

1 2
N 0.000000000000000 -0.000020000000000 0.474780000000000
F 0.000000000000000 1.220740000000000 -0.123170000000000
F 1.057220000000000 -0.610410000000000 -0.123160000000000
F -1.057220000000000 -0.610410000000000 -0.123160000000000

NF3+.wfx

