%nprocs=4
%mem=4GB
#p pbepbe aug-cc-pvtz output=wfx scf=(conver=6) int=(grid=ultrafine)

title

1 2
N 1.045930000000000 0.077050000000000 -0.030280000000000
H 2.056070000000000 0.042170000000000 -0.076950000000000
H 0.736930000000000 -0.884670000000000 0.028020000000000
H 0.737370000000000 0.413960000000000 -0.933090000000000

NH3+.wfx

