%nprocs=4
%mem=4GB
#p pbepbe aug-cc-pvtz output=wfx scf=(conver=6) int=(grid=ultrafine)

title

0 1
C 0.000000000000000 3.664370000000000 0.725160000000000
C 0.000000000000000 3.664370000000000 -0.725160000000000
C 0.000000000000000 4.924160000000000 1.405070000000000
C 0.000000000000000 2.458680000000000 1.402770000000000
C 0.000000000000000 4.924160000000000 -1.405070000000000
C 0.000000000000000 2.458680000000000 -1.402770000000000
C 0.000000000000000 6.094430000000000 -0.714130000000000
C 0.000000000000000 6.094430000000000 0.714130000000000
C 0.000000000000000 1.221820000000000 0.726240000000000
C 0.000000000000000 1.221820000000000 -0.726240000000000
C 0.000000000000000 0.000000000000000 1.403260000000000
C 0.000000000000000 0.000000000000000 -1.403260000000000
C 0.000000000000000 -1.221820000000000 0.726240000000000
C 0.000000000000000 -1.221820000000000 -0.726240000000000
C 0.000000000000000 -2.458680000000000 1.402770000000000
C 0.000000000000000 -2.458680000000000 -1.402770000000000
C 0.000000000000000 -3.664370000000000 0.725160000000000
C 0.000000000000000 -3.664370000000000 -0.725160000000000
C 0.000000000000000 -4.924160000000000 1.405070000000000
C 0.000000000000000 -4.924160000000000 -1.405070000000000
C 0.000000000000000 -6.094430000000000 0.714130000000000
C 0.000000000000000 -6.094430000000000 -0.714130000000000
H 0.000000000000000 4.924810000000000 2.487860000000000
H 0.000000000000000 2.460180000000000 2.486350000000000
H 0.000000000000000 4.924810000000000 -2.487860000000000
H 0.000000000000000 2.460180000000000 -2.486350000000000
H 0.000000000000000 7.037940000000000 -1.243570000000000
H 0.000000000000000 7.037940000000000 1.243570000000000
H 0.000000000000000 0.000000000000000 2.486730000000000
H 0.000000000000000 0.000000000000000 -2.486730000000000
H 0.000000000000000 -2.460180000000000 2.486350000000000
H 0.000000000000000 -2.460180000000000 -2.486350000000000
H 0.000000000000000 -4.924810000000000 2.487860000000000
H 0.000000000000000 -4.924810000000000 -2.487860000000000
H 0.000000000000000 -7.037940000000000 1.243570000000000
H 0.000000000000000 -7.037940000000000 -1.243570000000000

Pentacene.wfx

