%nprocs=4
%mem=4GB
#p pbepbe aug-cc-pvtz output=wfx scf=(conver=6) int=(grid=ultrafine)

title

0 1
C 0.677510000000000 0.991240000000000 0.864890000000000
C 1.767210000000000 1.971660000000000 1.184190000000000
C 3.067740000000000 1.684140000000000 1.185170000000000
H -0.012780000000000 0.887720000000000 1.704230000000000
H 0.090740000000000 1.325580000000000 0.007130000000000
H 1.089280000000000 0.008580000000000 0.636480000000000
H 1.453800000000000 2.981080000000000 1.428490000000000
H 3.811050000000000 2.432110000000000 1.423190000000000
H 3.423940000000000 0.689590000000000 0.947220000000000

Propene.wfx

