%nprocs=4
%mem=4GB
#p pbepbe aug-cc-pvtz output=wfx scf=(conver=6) int=(grid=ultrafine)

title

1 2
N 0.000000000000000 0.000000000000000 1.118060000000000
H 0.000000000000000 0.000000000000000 2.118400000000000
C 0.000000000000000 1.120340000000000 0.329580000000000
C 0.000000000000000 -1.120340000000000 0.329580000000000
C 0.000000000000000 0.713040000000000 -0.981020000000000
C 0.000000000000000 -0.713040000000000 -0.981020000000000
H 0.000000000000000 2.104900000000000 0.761220000000000
H 0.000000000000000 -2.104900000000000 0.761220000000000
H 0.000000000000000 1.360150000000000 -1.840300000000000
H 0.000000000000000 -1.360150000000000 -1.840300000000000

Pyrrole+.wfx

