%nprocs=4
%mem=4GB
#p pbepbe aug-cc-pvtz output=wfx scf=(conver=6) int=(grid=ultrafine)

title

0 1
C 0.975240000000000 1.845460000000000 8.103830000000000
N 1.685320000000000 0.721220000000000 8.202430000000000
N -0.353710000000000 1.943210000000000 8.057180000000001
N 1.006610000000000 -0.404510000000000 8.259520000000000
N -1.032430000000000 0.817480000000000 8.114269999999999
C -0.322340000000000 -0.306760000000000 8.212790000000000
H 1.531800000000000 2.768570000000000 8.056979999999999
H -0.878900000000000 -1.229870000000000 8.259690000000001

s-Tetrazine.wfx

