%nprocs=4
%mem=4GB
#p pbepbe aug-cc-pvtz output=wfx scf=(conver=6) int=(grid=ultrafine)

title

0 1
Si 2.585480000000000 2.908790000000000 1.207390000000000
Si 1.482640000000000 0.831640000000000 1.264700000000000
H 2.200920000000000 3.663910000000000 -0.011800000000000
H 4.056920000000000 2.710740000000000 1.197400000000000
H 2.224820000000000 3.717980000000000 2.398860000000000
H 1.867870000000000 0.075990000000000 2.483330000000000
H 1.843460000000000 0.022210000000000 0.073430000000000
H 0.011180000000000 1.029530000000000 1.274690000000000

Si2H6.wfx

