%nprocs=4
%mem=4GB
#p pbepbe aug-cc-pvtz output=wfx scf=(conver=6) int=(grid=ultrafine)

title

1 2
C 0.380410000000000 2.187740000000000 0.793380000000000
C 1.395720000000000 1.674840000000000 1.492990000000000
C 2.778650000000000 2.186000000000000 1.551130000000000
C 3.713540000000000 1.511030000000000 2.339470000000000
C 3.199440000000000 3.322270000000000 0.849210000000000
C 5.031340000000000 1.951100000000000 2.429210000000000
C 4.512230000000000 3.763970000000000 0.936230000000000
C 5.435550000000000 3.080240000000000 1.727020000000000
H 0.485920000000000 3.067990000000000 0.174490000000000
H -0.597010000000000 1.728720000000000 0.825630000000000
H 1.212050000000000 0.788730000000000 2.090430000000000
H 3.403180000000000 0.631210000000000 2.887940000000000
H 2.498770000000000 3.865630000000000 0.231530000000000
H 5.737380000000000 1.412590000000000 3.045730000000000
H 4.818480000000000 4.643450000000000 0.387030000000000
H 6.457190000000000 3.426800000000000 1.792500000000000

Styrene+.wfx

