%nprocs=4
%mem=4GB
#p pbepbe aug-cc-pvtz output=wfx scf=(conver=6) int=(grid=ultrafine)

title

1 2
C 0.000000000000000 0.000000000000000 0.723700000000000
C 0.000000000000000 0.000000000000000 -0.723700000000000
C 0.000000000000000 1.231010000000000 -1.401110000000000
C 0.000000000000000 -1.231010000000000 -1.401110000000000
C 0.000000000000000 -1.231010000000000 1.401110000000000
C 0.000000000000000 1.231010000000000 1.401110000000000
C 0.000000000000000 2.440940000000000 -0.723300000000000
C 0.000000000000000 -2.440940000000000 -0.723300000000000
C 0.000000000000000 -2.440940000000000 0.723300000000000
C 0.000000000000000 2.440940000000000 0.723300000000000
C 0.000000000000000 3.698210000000000 -1.403830000000000
C 0.000000000000000 -3.698210000000000 -1.403830000000000
C 0.000000000000000 -3.698210000000000 1.403830000000000
C 0.000000000000000 3.698210000000000 1.403830000000000
C 0.000000000000000 4.870150000000000 -0.712950000000000
C 0.000000000000000 -4.870150000000000 -0.712950000000000
C 0.000000000000000 -4.870150000000000 0.712950000000000
C 0.000000000000000 4.870150000000000 0.712950000000000
H 0.000000000000000 1.231840000000000 -2.484680000000000
H 0.000000000000000 -1.231840000000000 -2.484680000000000
H 0.000000000000000 -1.231840000000000 2.484680000000000
H 0.000000000000000 1.231840000000000 2.484680000000000
H 0.000000000000000 3.698440000000000 -2.486600000000000
H 0.000000000000000 -3.698440000000000 -2.486600000000000
H 0.000000000000000 -3.698440000000000 2.486600000000000
H 0.000000000000000 3.698440000000000 2.486600000000000
H 0.000000000000000 5.813300000000000 -1.243030000000000
H 0.000000000000000 -5.813300000000000 -1.243030000000000
H 0.000000000000000 -5.813300000000000 1.243030000000000
H 0.000000000000000 5.813300000000000 1.243030000000000

Tetracene+.wfx

