%nprocs=4
%mem=4GB
#p pbepbe aug-cc-pvtz output=wfx scf=(conver=6) int=(grid=ultrafine)

title

0 1
S 0.000000000000000 0.000000000000000 0.869600000000000
C -0.000000000000000 0.741260000000000 -0.792710000000000
C -0.000000000000000 -0.741260000000000 -0.792710000000000
H -0.912970000000000 1.248400000000000 -1.068690000000000
H 0.912970000000000 1.248400000000000 -1.068690000000000
H 0.912970000000000 -1.248400000000000 -1.068690000000000
H -0.912970000000000 -1.248400000000000 -1.068690000000000

Thiirane.wfx

