%nprocs=4
%mem=4GB
#p pbepbe aug-cc-pvtz output=wfx scf=(conver=6) int=(grid=ultrafine)

title

1 2
O 2.133890000000000 2.834270000000000 0.842830000000000
C 1.084600000000000 2.034880000000000 0.512160000000000
C 2.231230000000000 4.051950000000000 0.196720000000000
C 1.137860000000000 0.762760000000000 1.307080000000000
O 0.250680000000000 2.324880000000000 -0.298790000000000
C 3.235060000000000 4.871220000000000 0.478060000000000
H 1.448600000000000 4.249840000000000 -0.517340000000000
H 1.106570000000000 0.995980000000000 2.370160000000000
H 2.076730000000000 0.248240000000000 1.108960000000000
H 0.298470000000000 0.131780000000000 1.035620000000000
H 3.301940000000000 5.818370000000000 -0.032650000000000
H 3.988660000000000 4.613540000000000 1.206990000000000

Vinyl_acetate+.wfx

