%nprocs=4
%mem=4GB
#p pbepbe aug-cc-pvtz output=wfx scf=(conver=6) int=(grid=ultrafine)

title

0 1
C 0.508370000000000 0.869580000000000 0.000000000000000
C 1.832030000000000 0.869580000000000 0.000000000000000
F 2.552380000000000 -0.251800000000000 0.000000000000000
F -0.211980000000000 -0.251800000000000 0.000000000000000
H -0.067150000000000 1.780520000000000 0.000000000000000
H 2.407550000000000 1.780520000000000 0.000000000000000

Z-CHF-CHF.wfx

