%nprocs=4
%mem=4GB
#p pbepbe def2qzvp output=wfx scf=(conver=6) int=(grid=ultrafine)

title

1 1
o 0.000000000000000 0.000000000000000 -2.063404581198568
c 0.000000000000000 0.000000000000000 -0.941920718660837
c 0.000000000000000 0.000000000000000 0.502125414194561
h -0.519995709799371 -0.900658989090350 0.834399961888281
h -0.519995709799371 0.900658989090350 0.834399961888281
h 1.039991419598741 0.000000000000000 0.834399961888281

acetyl.wfx

