%nprocs=4
%mem=4GB
#p pbepbe def2qzvp output=wfx scf=(conver=6) int=(grid=ultrafine)

title

1 2
c 0.000000000000000 -1.324892922945290 -0.150290350477456
c 0.000000000000000 0.000000000000000 0.565954784824437
o 0.000000000000000 0.000000000000000 1.779346941579275
c 0.000000000000000 1.324892922945290 -0.150290350477456
h 0.000000000000000 -2.156568894307156 0.545328763032586
h 0.887736230329704 -1.335622952356688 -0.783844637878497
h -0.887736230329704 -1.335622952356688 -0.783844637878497
h 0.887736230329704 1.335622952356688 -0.783844637878497
h 0.000000000000000 2.156568894307156 0.545328763032586
h -0.887736230329704 1.335622952356688 -0.783844637878497

aceton+.wfx

