%nprocs=4
%mem=4GB
#p pbepbe def2qzvp output=wfx scf=(conver=6) int=(grid=ultrafine)

title

0 2
c 0.000000000000000 0.000000000000000 0.000000000000000
h -0.537430619895152 0.930857139201641 0.000000000000000
h -0.537430619895152 -0.930857139201641 0.000000000000000
h 1.074861239790304 0.000000000000000 0.000000000000000

ch3.wfx

