%nprocs=4
%mem=4GB
#p pbepbe def2qzvp output=wfx scf=(conver=6) int=(grid=ultrafine)

title

1 2
o 1.006920083571670 -0.100300619998104 0.000000000000000
o -1.006920083571670 0.100300619998104 0.000000000000000
h 1.170771469407882 0.471454395835729 0.774991864604386
h 1.170771469407882 0.471454395835729 -0.774991864604386
h -1.170771469407882 -0.471454395835729 0.774991864604386
h -1.170771469407882 -0.471454395835729 -0.774991864604386

h2o2+.wfx

