%nprocs=4
%mem=4GB
#p pbepbe def2qzvp output=wfx scf=(conver=6) int=(grid=ultrafine)

title

1 2
n 0.000000000000000 0.000000000000000 0.000000000000000
h 0.509373071307397 -0.882260039511817 0.000000000000000
h 0.509373071307397 0.882260039511817 0.000000000000000
h -1.018746142614794 0.000000000000000 0.000000000000000

nh3+.wfx

