%nprocs=4
%mem=4GB
#p pbepbe aug-cc-pvtz output=wfx scf=(conver=6) int=(grid=ultrafine)

title

0 1
n 0.000000000000000 0.000000000000000 -0.288533015701538
h -0.468066979881442 0.810715790499978 0.096177671900513
h -0.468066979881442 -0.810715790499978 0.096177671900513
h 0.936133959762884 0.000000000000000 0.096177671900513

01a.wfx

