%nprocs=4
%mem=4GB
#p pbepbe aug-cc-pvtz output=wfx scf=(conver=6) int=(grid=ultrafine)

title

0 1
o -1.655420483517010 -0.123300374788943 0.000000000000000
o 1.246212346836510 0.102688691889812 0.000000000000000
h -0.704090203224976 0.031931671668527 0.000000000000000
h -2.038672576256247 0.753722878799048 0.000000000000000
h 1.575985458080864 -0.382521433784228 -0.758561235961082
h 1.575985458080864 -0.382521433784228 0.758561235961082

02.wfx

