%nprocs=4
%mem=4GB
#p pbepbe aug-cc-pvtz output=wfx scf=(conver=6) int=(grid=ultrafine)

title

0 1
c -2.018649588982562 0.052883014258007 0.000000000000000
c 2.018649588982562 -0.052883014258007 0.000000000000000
n -1.407770389023534 -1.142484340859634 0.000000000000000
n 1.407770389023534 1.142484340859634 0.000000000000000
h -0.387244100962054 -1.207782396919336 0.000000000000000
h -3.117061861311290 -0.013701004204109 0.000000000000000
h -1.964596553652029 -1.977036615684770 0.000000000000000
h 1.964596553652029 1.977036615684770 0.000000000000000
h 0.387244100962054 1.207782396919336 0.000000000000000
h 3.117061861311290 0.013701004204109 0.000000000000000
o -1.452200389583393 1.143634341016108 0.000000000000000
o 1.452200389583393 -1.143634341016108 0.000000000000000

04.wfx

