%nprocs=4
%mem=4GB
#p pbepbe aug-cc-pvtz output=wfx scf=(conver=6) int=(grid=ultrafine)

title

0 1
o -1.478618927462152 -2.019177148242500 -0.384247482771135
n -1.545252573390903 0.230843135962373 0.002288824793736
n 1.351764864123987 0.230630641418925 -0.032892085223167
n 1.307315560215370 -2.041644101381719 0.402873751590470
c -2.198947988720387 1.397365444985746 0.216897088874885
c -2.158381055060260 -0.997089244499528 -0.206882731539988
c -3.596601278177548 -0.938534996269106 -0.192699832599784
c -4.266738100022772 0.236327242578010 0.019154727561700
c 2.034423377195726 -0.913684962717857 0.151168665916252
c 3.442762521096428 -0.934949620027008 0.137561460965514
c 4.137593751128880 0.240238630932476 -0.069534196841105
c 3.428974631123851 1.428162108528771 -0.261917651260846
c 2.047017109024475 1.361993004627027 -0.234478745305786
c -3.564257949585892 1.444971792659086 0.233133996597030
h -1.573917163138627 2.265070527393641 0.371560628843868
h -4.121120954592407 -1.868185471087984 -0.354868290622285
h -0.507523910525827 0.227873038191275 -0.009587478719826
h -5.348803337763024 0.237403120398562 0.024200629235648
h 3.964924665649102 -1.869475893644250 0.290747096180475
h 5.218946909781573 0.233261227350082 -0.083276197990930
h 3.930096125528949 2.369092110389798 -0.429946583887654
h 1.452990994189045 2.256044634777718 -0.383997895518304
h -4.073031644703052 2.379417004828108 0.404500247971952
h 1.788474742524177 -2.914617736344103 0.277097294542647
h 0.327909631561289 -2.041334490807500 0.113144759206639

06.wfx

