%nprocs=4
%mem=4GB
#p pbepbe aug-cc-pvtz output=wfx scf=(conver=6) int=(grid=ultrafine)

title

0 1
n -1.296942434579310 0.430344829641821 -0.023395906175027
n -1.341391738487927 -1.841929913158822 0.412369930638609
c 0.794055222393131 -0.735235431804112 0.147057640013653
c 1.488886452425582 0.439952819155373 -0.060038017792965
c 0.780267332420554 1.627876296751673 -0.252421472212707
c -0.601690189678822 1.561707192849924 -0.224982566257646
c -0.614283921507571 -0.713970774494961 0.160664844964391
h 2.570239611078276 0.432975415572979 -0.073780018942791
h 1.281388826825652 2.568806298612694 -0.420450404839515
h -1.195716304514252 2.455758823000615 -0.374501716470165
h 1.316217366945805 -1.669761705421353 0.300243275228615
h -0.860232556179120 -2.714903548121207 0.286593473590786
h -2.320797667142009 -1.841620302584603 0.122640938254779

06b.wfx

