%nprocs=4
%mem=4GB
#p pbepbe aug-cc-pvtz output=wfx scf=(conver=6) int=(grid=ultrafine)

title

0 1
c 0.000000000000000 0.667402922825930 0.000000000000000
c 0.000000000000000 -0.667402922825930 0.000000000000000
h 0.923389925949389 1.233791370954377 0.000000000000000
h 0.923389925949389 -1.233791370954377 0.000000000000000
h -0.923389925949389 1.233791370954377 0.000000000000000
h -0.923389925949389 -1.233791370954377 0.000000000000000

09a.wfx

