%nprocs=4
%mem=4GB
#p pbepbe aug-cc-pvtz output=wfx scf=(conver=6) int=(grid=ultrafine)

title

0 1
c 1.206971632181183 0.696845396744047 0.000000000000000
c 1.206971632181183 -0.696845396744047 0.000000000000000
c 0.000000000000000 -1.393690793488094 0.000000000000000
c -1.206971632181183 -0.696845396744047 0.000000000000000
c -1.206971632181183 0.696845396744047 0.000000000000000
c 0.000000000000000 1.393690793488094 0.000000000000000
h 2.143498932515902 -1.237549685695732 0.000000000000000
h 0.000000000000000 -2.475099371391465 0.000000000000000
h -2.143498932515902 -1.237549685695732 0.000000000000000
h -2.143498932515902 1.237549685695732 0.000000000000000
h 0.000000000000000 2.475099371391465 0.000000000000000
h 2.143498932515902 1.237549685695732 0.000000000000000

10a.wfx

