%nprocs=4
%mem=4GB
#p pbepbe aug-cc-pvtz output=wfx scf=(conver=6) int=(grid=ultrafine)

title

0 1
c -1.207195425154784 -0.696974603677597 0.000000000000000
c -1.207195425154784 0.696974603677597 0.000000000000000
c 0.000000000000000 -1.393949207355195 0.000000000000000
c 0.000000000000000 1.393949207355195 0.000000000000000
c 1.207195425154784 0.696974603677597 0.000000000000000
c 1.207195425154784 -0.696974603677597 0.000000000000000
h 0.000000000000000 -2.474432879370065 0.000000000000000
h 2.142921733493949 -1.237216439685032 0.000000000000000
h 2.142921733493949 1.237216439685032 0.000000000000000
h 0.000000000000000 2.474432879370065 0.000000000000000
h -2.142921733493949 1.237216439685032 0.000000000000000
h -2.142921733493949 -1.237216439685032 0.000000000000000

11a.wfx

