%nprocs=4
%mem=4GB
#p pbepbe aug-cc-pvtz output=wfx scf=(conver=6) int=(grid=ultrafine)

title

0 1
c -0.714146881193825 -0.659657509027884 1.207702155548023
c -1.410906932114066 -0.634587379451083 0.000000000000000
c -0.714146881193825 -0.659657509027884 -1.207702155548023
c 0.679592685843820 -0.709745030928021 -1.207865540101248
c 1.376605762031621 -0.734786773227234 0.000000000000000
c 0.679592685843820 -0.709745030928021 1.207865540101248
c 0.070823733017778 2.701470342705379 0.000000000000000
h -2.491292904677943 -0.592940467585864 0.000000000000000
h -1.254321194955396 -0.637862514290569 -2.144051207800552
h 1.219915938188465 -0.727309816642147 -2.144256857855963
h 2.457216687999662 -0.772216344968432 0.000000000000000
h 1.219915938188465 -0.727309816642147 2.144256857855963
h -1.254321194955396 -0.637862514290569 2.144051207800552
h 0.143256947069707 1.636050899879498 0.000000000000000
n -0.007784389092861 3.866159464425013 0.000000000000000

19.wfx

