%nprocs=4
%mem=4GB
#p pbepbe aug-cc-pvtz output=wfx scf=(conver=6) int=(grid=ultrafine)

title

0 1
c -2.048618659054620 0.948531066198295 -0.144119426409658
c -1.504593642629776 0.032772899221386 0.759224715976340
c -2.189092029786201 -1.144824879630407 1.052599470649974
c -3.415834226323129 -1.418458175227373 0.453818045238827
c -3.955886159376879 -0.499169750639022 -0.444871403699794
c -3.278562940503372 0.677645974485957 -0.745381300594947
c 1.995462807271616 0.971189475754137 0.113780646393814
c 1.548890557809271 0.254370958720133 -0.993184066072810
c 2.200224782471895 -0.922291837832202 -1.348579912564330
c 3.290055770034557 -1.381875806015054 -0.610632255930230
c 3.728172395746284 -0.655005369758161 0.492875564266806
c 3.080971989528738 0.523034824814825 0.860280837790070
h -3.684679660599417 1.398119810859886 -1.441527933987950
h -0.565324706546056 2.149337384274857 -0.042229401703733
h 1.742772635752997 2.533435165554831 1.193942879898177
h -0.552163607662600 0.241341856734776 1.228488178070847
h -1.756626490965155 -1.847460844679820 1.752073723804576
h -3.943979904328454 -2.332702369837011 0.684026376068195
h -4.908586662016623 -0.697609185209419 -0.916900638249613
h 0.703038947930524 0.621483354392242 -1.557627231189158
h 1.850634323495463 -1.480288189125673 -2.205953413752974
h 3.791511351155440 -2.296469353387530 -0.892435346933934
h 4.572251819426692 -1.000325435942904 1.073495282599011
h 3.418373834669018 1.087722782888233 1.721180922014782
o -1.430017236432149 2.114537736095007 -0.478889234713475
o 1.311604710931883 2.122957907290058 0.436544923031200

22.wfx

