%nprocs=4
%mem=4GB
#p pbepbe aug-cc-pvtz output=wfx scf=(conver=6) int=(grid=ultrafine)

title

0 1
o -1.572352870585300 -1.945447703716407 0.000000000000000
c -0.712801262128317 -0.868696553835598 0.000000000000000
c -1.283103459374095 0.401490677819209 0.000000000000000
c -0.454033635322993 1.518505007135815 0.000000000000000
c 0.932573507921942 1.374157702626142 0.000000000000000
c 1.490511985750530 0.098728065119233 0.000000000000000
c 0.669692010275678 -1.027271567155179 0.000000000000000
h -1.050679443221412 -2.754598076636011 0.000000000000000
h -2.359711391644738 0.500222027702711 0.000000000000000
h -0.897514161620993 2.504397727986627 0.000000000000000
h 1.570632183450835 2.246071195947965 0.000000000000000
h 2.564297877057805 -0.027044828302982 0.000000000000000
h 1.102488659441070 -2.020513674691533 0.000000000000000

22a.wfx

