%nprocs=4
%mem=4GB
#p pbepbe aug-cc-pvtz output=wfx scf=(conver=6) int=(grid=ultrafine)

title

0 1
c 0.000000000000000 0.000000000000000 0.488652871583763
c 0.000000000000000 0.000000000000000 -0.966883569376023
n 0.000000000000000 0.000000000000000 -2.117879584608609
h 0.511962222047276 -0.886744580141743 0.865370094133625
h 0.511962222047276 0.886744580141743 0.865370094133625
h -1.023924444094552 0.000000000000000 0.865370094133625

E14.wfx

