%nprocs=4
%mem=4GB
#p pbepbe aug-cc-pvtz output=wfx scf=(conver=6) int=(grid=ultrafine)

title

0 1
c 0.000000000000000 -1.289755837654007 -0.155338924839806
c 0.000000000000000 0.000000000000000 0.642237822286646
c 0.000000000000000 1.289755837654007 -0.155338924839806
o 0.000000000000000 0.000000000000000 1.853142965644207
h 0.000000000000000 -2.144469617582578 0.518337687090527
h 0.878592254083477 -1.334094459912649 -0.805344578108079
h -0.878592254083477 -1.334094459912649 -0.805344578108079
h 0.000000000000000 2.144469617582578 0.518337687090527
h 0.878592254083477 1.334094459912649 -0.805344578108079
h -0.878592254083477 1.334094459912649 -0.805344578108079

E28.wfx

