%nprocs=4
%mem=4GB
#p pbepbe aug-cc-pvtz output=wfx scf=(conver=6) int=(grid=ultrafine)

title

0 1
c -1.672532543604293 0.018615940305917 0.172622656826253
c -0.854189008345752 0.115664539930695 -1.107673466494624
c 0.619300978132513 -0.276826390569414 -0.984841082758738
c 1.194487643888231 0.329507395115846 0.291722918644413
c 0.403030232980045 -0.172990470711918 1.484244809547937
o -1.025073338028921 0.033768230642758 1.365950008345011
o -2.874394767997589 0.001208796454242 0.166055170520690
h -0.935859776702062 1.163503548348243 -1.417987254136294
h -1.380180128040878 -0.466842095839681 -1.864272381052944
h 0.715184950605065 -1.366983369484955 -0.944281645645203
h 1.170141252047364 0.055381440164813 -1.867360588592514
h 1.148523827685486 1.422440323520014 0.244950809804185
h 2.243441419548540 0.053979752519675 0.429242584413763
h 0.566214902470167 -1.246422764154369 1.625301401038144
h 0.681904355362053 0.335995123758107 2.406326059539935

E32.wfx

