%nprocs=4
%mem=4GB
#p pbepbe aug-cc-pvtz output=wfx scf=(conver=6) int=(grid=ultrafine)

title

0 1
c -1.842696419079814 -0.118215546468653 0.000000000000000
c -0.609893908444942 0.395847393751768 0.000000000000000
c 0.609893908444942 -0.395847393751768 0.000000000000000
c 1.842696419079814 0.118215546468653 0.000000000000000
h -2.010116747184509 -1.190087890788149 0.000000000000000
h -2.721879979084046 0.513479577224971 0.000000000000000
h -0.483381930484589 1.476034779570657 0.000000000000000
h 0.483381930484589 -1.476034779570657 0.000000000000000
h 2.010116747184509 1.190087890788149 0.000000000000000
h 2.721879979084046 -0.513479577224971 0.000000000000000

E7.wfx

