%nprocs=4
%mem=4GB
#p pbepbe aug-cc-pvtz output=wfx scf=(conver=6) int=(grid=ultrafine)

title

0 1
c 0.000000000000000 0.000000000000000 0.483024996057557
n 0.000000000000000 0.000000000000000 -0.937249981400337
c 0.000000000000000 0.000000000000000 -2.103755872522994
h 0.512955373526879 -0.888464768964023 0.852660285955260
h 0.512955373526879 0.888464768964023 0.852660285955260
h -1.025910747053753 0.000000000000000 0.852660285955260

P14.wfx

