%nprocs=4
%mem=4GB
#p pbepbe aug-cc-pvtz output=wfx scf=(conver=6) int=(grid=ultrafine)

title

0 1
c -0.200127027277230 -0.425646811340707 0.000000000000000
c -1.420597857658803 0.073334453839511 -0.749192753818146
c -1.420597857658803 0.073334453839511 0.749192753818146
c 1.037934362385920 0.374099216873438 0.000000000000000
c 2.273992424355930 -0.119140836188005 0.000000000000000
h -0.050278930011156 -1.499881271372338 0.000000000000000
h -1.336539465370722 1.024523943076841 -1.260283404182024
h -2.025343434210941 -0.660142420687766 -1.267201070654942
h -2.025343434210941 -0.660142420687766 1.267201070654942
h -1.336539465370722 1.024523943076841 1.260283404182024
h 0.900529018406765 1.454419115125712 0.000000000000000
h 2.461095124920397 -1.187777845337820 0.000000000000000
h 3.141816541700335 0.528496479782569 0.000000000000000

P8.wfx

