%nprocs=4
%mem=4GB
#p pbepbe aug-cc-pvtz output=wfx scf=(conver=6) int=(grid=ultrafine)

title

0 1
o -1.456492417533499 1.287209320933623 -0.007368897660518
h -0.492966992760593 1.479692742734120 -0.009860603590001
h -1.819419890032040 1.749373111098661 0.752143588172251
o -1.287209320933623 -1.456492417533499 0.007368897660518
h -1.479692742734120 -0.492966992760593 0.009860603590001
h -1.749373111098661 -1.819419890032040 -0.752143588172251
o 1.456492417533499 -1.287209320933623 -0.007368897660518
h 0.492966992760593 -1.479692742734120 -0.009860603590001
h 1.819419890032040 -1.749373111098661 0.752143588172251
o 1.287209320933623 1.456492417533499 0.007368897660518
h 1.479692742734120 0.492966992760593 0.009860603590001
h 1.749373111098661 1.819419890032040 -0.752143588172251

H2O4.wfx

