%nprocs=4
%mem=4GB
#p pbepbe aug-cc-pvtz output=wfx scf=(conver=6) int=(grid=ultrafine)

title

0 1
o -1.126802400919259 -1.542114747109253 1.311537533440902
h -0.766190308120113 -2.020888834272184 2.061912847648709
h -1.042547324938143 -0.587581142639606 1.537550392660300
o 0.080378111499372 -2.040821353321419 -1.086627142168914
h -0.529787279396313 -2.567651668192112 -1.607661907316047
h -0.361574447419910 -1.890196520506084 -0.219867823512511
o 0.865356434056648 2.157726866411807 -0.005126433755476
h 0.989683778126350 1.511834377220262 -0.737500108821942
h 1.747717401968867 2.402439354739243 0.284173582445191
o -0.798020896601825 1.105542446600000 1.883396426163774
h -0.192538335482768 1.515852677028591 1.224282477602883
h -1.580047199299910 1.662063590054468 1.908272424977209
o 1.167533469643088 0.310357664529568 -1.992308398968770
h 0.767938468703395 0.536434823745899 -2.835438698752256
h 0.778900528180515 -0.552997534289208 -1.726595171643043

H2O5.wfx

