%nprocs=4
%mem=4GB
#p pbepbe aug-cc-pvtz output=wfx scf=(conver=6) int=(grid=ultrafine)

title

0 1
o 1.863016203993835 1.969909534393941 0.119079372654581
h 0.905697437156653 2.178708416792557 0.023876039737357
h 2.152304508204687 2.420418822779799 0.916064028166672
o 0.774483597945411 -2.598374127517684 0.119079372654581
h 1.019991934222986 -3.074159792174934 0.916064028166672
h 1.433968117803001 -1.873711197116403 0.023876039737357
o 2.637499801939245 -0.628464593123743 -0.119079372654581
h 2.339665554959654 0.304997219676153 -0.023876039737357
h 3.172296442427673 -0.653740969395135 -0.916064028166672
o -1.863016203993835 -1.969909534393941 -0.119079372654581
h -2.152304508204687 -2.420418822779799 -0.916064028166672
h -0.905697437156653 -2.178708416792557 -0.023876039737357
o -0.774483597945411 2.598374127517684 -0.119079372654581
h -1.019991934222986 3.074159792174934 -0.916064028166672
h -1.433968117803001 1.873711197116403 -0.023876039737357
o -2.637499801939245 0.628464593123743 0.119079372654581
h -3.172296442427673 0.653740969395135 0.916064028166672
h -2.339665554959654 -0.304997219676159 0.023876039737357

H2O6c2.wfx

