%nprocs=4
%mem=4GB
#p pbepbe aug-cc-pvtz output=wfx scf=(conver=6) int=(grid=ultrafine)

title

0 1
o -1.464555215591180 -1.464555215591180 1.349706691213016
o -1.464555215591180 1.464555215591180 -1.349706691213016
o 1.464555215591180 -1.464555215591180 -1.349706691213016
o 1.464555215591180 1.464555215591180 1.349706691213016
h -1.534665425901664 -1.534665425901664 0.362255351092558
h -1.534665425901664 1.534665425901664 -0.362255351092558
h 1.534665425901664 -1.534665425901664 -0.362255351092558
h 1.534665425901664 1.534665425901664 0.362255351092558
h -2.089663570472207 -2.089663570472207 1.725111171953062
h -2.089663570472207 2.089663570472207 -1.725111171953062
h 2.089663570472207 -2.089663570472207 -1.725111171953062
h 2.089663570472207 2.089663570472207 1.725111171953062
o -1.405288574914148 -1.405288574914148 -1.339008244986590
o -1.405288574914148 1.405288574914148 1.339008244986590
o 1.405288574914148 -1.405288574914148 1.339008244986590
o 1.405288574914148 1.405288574914148 -1.339008244986590
h -1.552615777721963 -0.462064545567011 -1.526898938850147
h -1.552615777721963 0.462064545567011 1.526898938850147
h 1.552615777721963 -0.462064545567011 1.526898938850147
h -0.462064545567011 -1.552615777721963 -1.526898938850147
h 0.462064545567011 1.552615777721963 -1.526898938850147
h 0.462064545567011 -1.552615777721963 1.526898938850147
h -0.462064545567011 1.552615777721963 1.526898938850147
h 1.552615777721963 0.462064545567011 -1.526898938850147

H2O8d2d.wfx

