%nprocs=4
%mem=4GB
#p pbepbe aug-cc-pvtz output=wfx scf=(conver=6) int=(grid=ultrafine)

title

-1 1
h 1.830520333108963 -1.896846232780005 -0.693962788047605
o 2.202287892987135 -1.151954454118286 -0.216614176243707
h 1.380563219103943 -0.684856378455178 0.150309801317374
h 0.000000000000000 0.000000000000000 1.620592876709535
h -0.097178587865977 1.538031008502026 0.150309801317374
h 0.727456858105814 2.533700227006315 -0.693962788047605
o -0.103522125224496 2.483214488832908 -0.216614176243707
o 0.000000000000000 0.000000000000000 0.660208612212270
h -1.283384631237967 -0.853174630046848 0.150309801317374
o -2.098765767762639 -1.331260034714622 -0.216614176243707
h -2.557977191214777 -0.636853994226310 -0.693962788047605

OHmH2O3.wfx

