%nprocs=4
%mem=2GB
#p pbepbe aug-cc-pvtz output=wfx scf=(conver=6) int=(grid=ultrafine)

title

0 1
C 0.0000000000 0.0000000000 0.7632580000
C 0.0000000000 0.0000000000 -0.7632580000
H 0.0000000000 1.0169280000 1.1578430000
H -0.8806860000 -0.5084640000 1.1578430000
H 0.8806860000 -0.5084640000 1.1578430000
H 0.0000000000 -1.0169280000 -1.1578430000
H -0.8806860000 0.5084640000 -1.1578430000
H 0.8806860000 0.5084640000 -1.1578430000

c2h6.wfx

