%nprocs=4
%mem=2GB
#p pbepbe aug-cc-pvtz output=wfx scf=(conver=6) int=(grid=ultrafine)

title

0 1
F 0.0000000000 0.0000000000 0.7503860000
C 0.0000000000 0.0000000000 -0.6293630000
H 0.0000000000 1.0269090000 -0.9924300000
H 0.8893290000 -0.5134540000 -0.9924300000
H -0.8893290000 -0.5134540000 -0.9924300000

ch3f.wfx

