%nprocs=4
%mem=2GB
#p pbepbe aug-cc-pvtz output=wfx scf=(conver=6) int=(grid=ultrafine)

title

0 2
C 0.0596430000 -0.6276210000 0.0000000000
H -0.4660890000 -1.0233210000 0.8782150000
H 1.0797410000 -1.0066620000 0.0000000000
H -0.4660890000 -1.0233210000 -0.8782150000
N 0.0596430000 0.8164210000 0.0000000000
H -0.9229190000 1.1040820000 0.0000000000

ch3nh.wfx

