%nprocs=4
%mem=2GB
#p pbepbe aug-cc-pvtz output=wfx scf=(conver=6) int=(grid=ultrafine)

title

0 1
C 0.0000000000 0.0000000000 -1.2129110000
H 0.0000000000 0.9416580000 -1.7360110000
H 0.0000000000 -0.9416580000 -1.7360110000
C 0.0000000000 0.0000000000 0.1031240000
O 0.0000000000 0.0000000000 1.2663430000

ketene.wfx

