%nprocs=4
%mem=2GB
#p pbepbe aug-cc-pvtz output=wfx scf=(conver=6) int=(grid=ultrafine)

title

0 1
N 0.0000000000 0.7191710000 -0.0775830000
N 0.0000000000 -0.7191710000 -0.0775830000
H -0.2158610000 1.0853830000 0.8425850000
H 0.9420760000 1.0095880000 -0.2995010000
H 0.2158610000 -1.0853830000 0.8425850000
H -0.9420760000 -1.0095880000 -0.2995010000

n2h4.wfx

