%nprocs=4
%mem=2GB
#p pbepbe aug-cc-pvtz output=wfx scf=(conver=6) int=(grid=ultrafine)

title

0 1
Si 0.0000000000 1.1708840000 0.0000000000
H -1.3899500000 1.6851250000 0.0000000000
H 0.6954570000 1.6836940000 1.2040450000
H 0.6954570000 1.6836940000 -1.2040450000
Si 0.0000000000 -1.1708840000 0.0000000000
H 1.3899500000 -1.6851250000 0.0000000000
H -0.6954570000 -1.6836940000 1.2040450000
H -0.6954570000 -1.6836940000 -1.2040450000

si2h6.wfx

