%nprocs=4
%mem=2GB
#p pbepbe aug-cc-pvtz output=wfx scf=(conver=6) int=(grid=ultrafine)

title

0 1
F 0.9009150000 0.9009150000 0.9009150000
Si 0.0000000000 0.0000000000 0.0000000000
F -0.9009150000 -0.9009150000 0.9009150000
F -0.9009150000 0.9009150000 -0.9009150000
F 0.9009150000 -0.9009150000 -0.9009150000

sif4.wfx

