%nprocs=4
%mem=2GB
#p pbepbe aug-cc-pvtz output=wfx scf=(conver=6) int=(grid=ultrafine)

title

0 1
F 0.0000000000 0.0000000000 -1.0998390000
Si 0.0000000000 0.0000000000 0.4955250000
H 0.0000000000 1.3902930000 0.9870680000
H -1.2040290000 -0.6951460000 0.9870680000
H 1.2040290000 -0.6951460000 0.9870680000

sih3f.wfx

