%nprocs=4
%mem=2GB
#p pbepbe aug-cc-pvtz output=wfx scf=(conver=6) int=(grid=ultrafine)

title

0 1
C 0.0565830000 0.5876520000 0.0000000000
N 0.0565830000 -0.6865080000 0.0000000000
H -0.9023050000 -1.0342640000 0.0000000000
H -0.8438180000 1.2045850000 0.0000000000
H 1.0105420000 1.1093230000 0.0000000000

ch2nh.wfx

