%nprocs=4
%mem=2GB
#p pbepbe aug-cc-pvtz output=wfx scf=(conver=6) int=(grid=ultrafine)

title

0 1
F 1.2236840000 -0.1027700000 0.0000000000
C 0.0000000000 0.5581430000 0.0000000000
C -1.1228020000 -0.4509510000 0.0000000000
H -2.0842900000 0.0652460000 0.0000000000
H -0.0280600000 1.1912650000 0.8879740000
H -0.0280600000 1.1912650000 -0.8879740000
H -1.0679670000 -1.0829970000 0.8857450000
H -1.0679670000 -1.0829970000 -0.8857450000

c2h5f.wfx

