%nprocs=4
%mem=2GB
#p pbepbe aug-cc-pvtz output=wfx scf=(conver=6) int=(grid=ultrafine)

title

0 1
C -0.3291850000 0.6845970000 0.0000000000
C 0.3291850000 -0.6845970000 0.0000000000
H -1.4316620000 0.6745070000 0.0000000000
H 1.4316620000 -0.6745070000 0.0000000000
O 0.3291850000 1.6967140000 0.0000000000
O -0.3291850000 -1.6967140000 0.0000000000

glyoxal.wfx

