%nprocs=4
%mem=2GB
#p pbepbe aug-cc-pvtz output=wfx scf=(conver=6) int=(grid=ultrafine)

title

0 1
C 0.0000000000 0.6355150000 -0.4629520000
C 0.0000000000 -0.6355150000 -0.4629520000
H 0.0000000000 -1.6522560000 -0.7937400000
H 0.0000000000 1.6522560000 -0.7937400000
O 0.0000000000 0.0000000000 0.8928620000

oxirene.wfx

