%nprocs=4
%mem=2GB
#p pbepbe aug-cc-pvtz output=wfx scf=(conver=6) int=(grid=ultrafine)

title

0 1
C 0.0000000000 0.4634030000 0.0000000000
O 1.2055400000 0.3746580000 0.0000000000
H -0.4844150000 1.4584950000 0.0000000000
C -0.9361330000 -0.7118300000 0.0000000000
H -0.3764350000 -1.6440950000 0.0000000000
H -1.5833370000 -0.6605510000 0.8784400000
H -1.5833370000 -0.6605510000 -0.8784400000

acetaldehyde.wfx

