%nprocs=4
%mem=2GB
#p pbepbe aug-cc-pvtz output=wfx scf=(conver=6) int=(grid=ultrafine)

title

0 2
C -0.0148390000 0.7318420000 0.0000000000
H -0.2824880000 1.2126960000 0.9288540000
H -0.2824880000 1.2126960000 -0.9288540000
N -0.0148390000 -0.6648500000 0.0000000000
H 0.3789430000 -1.0812460000 -0.8286860000
H 0.3789430000 -1.0812460000 0.8286860000

ch2nh2.wfx

