%nprocs=4
%mem=4GB
#p pbepbe aug-cc-pvtz output=wfx scf=(conver=6) int=(grid=ultrafine)

title

0 1
o -1.330506459787002 0.999074127381902 0.000000000000000
h -1.063545475154105 1.921087131804087 0.000000000000000
h -0.505132582454066 0.491942126751706 0.000000000000000
o 1.005214361360167 -0.751268200592764 0.000000000000000
h 0.946985078017506 -1.330417592672468 -0.765575182871987
h 0.946985078017506 -1.330417592672468 0.765575182871987

H2O2.wfx

