%nprocs=4
%mem=4GB
#p pbepbe aug-cc-pvtz output=wfx scf=(conver=6) int=(grid=ultrafine)

title

0 1
o 1.444950663743882 -2.319236221207960 1.385217186759786
h 0.952340927240903 -1.484260171035527 1.528869619907699
h 2.369456919645812 -2.113949540999942 1.611665485958417
o 1.419868944940257 -2.462609394369192 -1.400711290354062
h 1.441234893921121 -2.494572402844588 -0.419409097161251
h 0.777161735596786 -3.146846391731740 -1.657571818102060
o 0.006837102340544 0.017219607345309 1.402715725925123
h 0.389332384095883 0.906563404924449 1.562540328301639
h -0.960950281496917 0.050327155766108 1.560982148375962
o -2.736728326793977 -0.071707338412963 1.358842058017855
h -2.788194674339088 -0.094610697320493 0.377903384807700
h -2.978598455257005 -0.971756315481476 1.641394894540348
o 4.045464139701854 1.462791918392875 -1.461268147465554
h 4.788107074278489 1.763985414026231 -1.991293412183853
h 4.033323840280929 0.473188215596039 -1.531349514122743
o -1.000803719595944 4.224960526640044 1.498286391366489
h -1.152189002375007 5.008261519277327 2.033561675834364
h -1.832839499908624 3.685612932366414 1.541632719298911
o -3.227240363397021 2.749222537031350 -1.545325453456101
h -3.841257284108990 3.211734854969947 -2.121788035959383
h -2.370337274270485 3.248593133211843 -1.588870701379033
o 0.061545989730983 -0.060866798930044 -1.350478802750105
h 0.540409496889642 -0.889213569418690 -1.568899552331642
h 0.052502420162353 -0.051731229365803 -0.366106329703743
o 1.350576538245443 2.362437465480629 -1.425550059169278
h 2.294342683228694 2.218038552368322 -1.616528450059785
h 0.925561788518244 1.487794307200285 -1.559534122778363
o 4.079711418068288 -1.270589771227406 1.510174220799453
h 4.818430202832100 -1.530719768819447 2.066755364251057
h 4.008820481449719 -0.283308408319788 1.579280717503139
o -0.911841603839351 4.114684041900125 -1.396827740539304
h -0.869957155837203 4.328968401678963 -0.449355945732813
h -0.089747253052474 3.630550174992853 -1.585974151517196
o -2.685019489260442 -0.042481629806999 -1.427440099079123
h -2.983143605040208 0.856000637336246 -1.656217698166647
h -1.713233765613708 -0.043808569743704 -1.563533662587589
o -3.129549148056797 -2.866551495101539 -1.329937613729898
h -3.114090088794177 -1.919142870292035 -1.548097573323878
h -3.303241319771846 -2.902586183382716 -0.373692389341892
o 1.224434024262320 2.478010549967902 1.359537667984672
h 0.581243304941907 3.165797767161106 1.607614566151640
h 1.272843021953255 2.516100348151058 0.379300634741053
o -0.812812998562925 -4.233131819916949 -1.523932514476526
h -0.946660702178514 -5.021367812318839 -2.056653429066244
h -1.663368967992209 -3.723242504238188 -1.554369203024723
o -3.249886112316840 2.754458666781590 1.347983118535812
h -3.192462745055883 1.812020601734996 1.579040067514616
h -3.434759513498556 2.766693126198017 0.392857374094406
o 4.037383670087279 -1.231356323098800 -1.381242521282704
h 3.233525858430538 -1.719509789814346 -1.624081859699495
h 4.160403564219346 -1.401225384996208 -0.431294316594336
o -3.094014959751748 -2.885117954215937 1.566154448129247
h -2.218018461535953 -3.351061431990874 1.594397556782076
h -3.689824171332204 -3.386782600287008 2.128595091301359
o -0.733253632357828 -4.165934873122180 1.369776387496295
h 0.070923139283702 -3.653839687548635 1.561915078331462
h -0.687989494516890 -4.359779803875962 0.417695882909635
o 3.909807226172557 1.416468650602448 1.425721764827756
h 3.066048156419067 1.849573929943737 1.636770994760904
h 4.055422459226850 1.592840312189688 0.480152949930491

H2O20es.wfx

