%nprocs=4
%mem=4GB
#p pbepbe aug-cc-pvtz output=wfx scf=(conver=6) int=(grid=ultrafine)

title

1 1
o -1.199728103155251 0.029020100883459 0.115747045193684
h -1.631424114716624 -0.733319920183000 0.528406454434224
h -1.694001737665889 0.295623634575718 -0.672422480958507
o 1.199728103155251 -0.029020100883459 0.115747045193684
h 0.000000000000000 0.000000000000000 0.056537962661183
h 1.694001737665889 -0.295623634575718 -0.672422480958507
h 1.631424114716624 0.733319920183000 0.528406454434224

H3OpH2O.wfx

