%nprocs=4
%mem=4GB
#p pbepbe aug-cc-pvtz output=wfx scf=(conver=6) int=(grid=ultrafine)

title

1 1
o 0.000000000000000 0.000000000000000 -0.208010490864947
h 0.469756551258240 0.813642213967602 0.069336830288317
h 0.469756551258240 -0.813642213967602 0.069336830288317
h -0.939513102516474 0.000000000000000 0.069336830288317

H3Op.wfx

