%nprocs=4
%mem=4GB
#p pbepbe aug-cc-pvtz output=wfx scf=(conver=6) int=(grid=ultrafine)

title

-1 1
o 0.230996560981684 -1.750160296519010 -1.613731837526513
h 0.354770395077788 -1.426865161939882 -2.509519754798279
h -0.486359894801094 -1.151186865089475 -1.224767926079726
o -0.818727668947465 -1.809625653682566 1.525733392723959
h -0.324773732508598 -2.462329252549223 1.021285756785637
h -1.169488892216489 -1.190873383196466 0.817622396500187
o -0.935630913371290 2.063121831591039 1.055916855133765
h -1.282616766820394 1.254229040174463 0.597356717006650
h -0.440295326998328 2.478749371765999 0.337299259411143
o 1.034638662648715 0.306236155392825 2.188866361093146
h 0.472361589468799 -0.488128636716726 2.122017684281766
h 0.423286751809621 1.022688071218747 1.928364063518860
o 0.265654249328545 1.737437137125889 -1.682381664251982
h 1.071557630887713 1.317185617171491 -1.335804250783401
h -0.437301687141122 1.116799476729723 -1.396060187909249
o 2.270373813705312 -0.020325779030482 -0.400179445411820
h 1.957444258631760 0.107062734893207 0.517321660824246
h 1.691980031294153 -0.718575215724640 -0.753980288535854
o -1.485428597146462 -0.144591533103122 -0.447820223139398
h -2.392440463882854 -0.240847658511797 -0.747538568843116

OHmH2O6.wfx

