%nprocs=4
%mem=4GB
#p pbepbe aug-cc-pvtz output=wfx scf=(conver=6) int=(grid=ultrafine)

title

0 1
o 2.590324325743873 -2.726351352845448 1.139621622246155
c 2.900324325913760 -1.797351352336338 0.429621621857060
o 2.826324325873208 -1.864351352373054 -0.903378378873452
h 3.105324326026101 -0.995351351896823 -1.282378379081150
c 3.401324326188320 -0.468351351608016 0.983621622160667
h 4.412324326742366 -0.290351351510470 0.611621621956801
h 3.423324326200373 -0.544351351649668 2.065621622753623
n 2.562324325728531 0.656648649008508 0.613621621957895
h 1.891324325360809 1.056648649227716 1.268621622316849
c 2.576324325736199 1.168648649289094 -0.626378378721649
o 3.246324326103374 0.692648649028234 -1.552378379229116
c 1.700324325256137 2.397648649962607 -0.817378378826321
h 1.902324325366835 2.787648650176336 -1.809378379369956
h 1.959324325398072 3.146648650373075 -0.067378378415305
n 0.287324324481783 2.094648649796561 -0.712378378768780
h -0.333675675858539 2.145648649824508 -1.508378379205001
c -0.325675675854155 1.936648649709973 0.471621621880075
o 0.270324324472468 1.910648649695721 1.554621622473584
c -1.845675676687144 1.820648649646400 0.396621621838976
n -2.298675676935399 1.804648649637632 -0.993378378922772
h -3.203675677431356 2.247648649880408 -1.074378378967161
h -2.414675676998972 0.841648649109891 -1.298378379089918
h -2.210675676887173 2.736648650148389 0.865621622095999
c -2.319675676946909 0.624648648990971 1.245621622304244
h -1.823675676675092 0.681648649022208 2.213621622834732
h -3.394675677536029 0.727648649047413 1.405621622391927
c -2.032675676789627 -0.682351351725293 0.563621621930496
c -3.008675677324494 -1.283351352054652 -0.240378378510114
h -3.992675677863745 -0.834351351808592 -0.302378378544088
c -2.739675677177075 -2.462351352700771 -0.933378378889889
h -3.508675677598502 -2.915351352949026 -1.544378379224732
c -1.485675676489857 -3.057351353026840 -0.828378378832347
h -1.273675676373680 -3.975351353529923 -1.359378379123349
c -0.505675675952801 -2.478351352709539 -0.022378378390642
h 0.462324324577687 -2.948351352967109 0.082621621666899
c -0.778675676102410 -1.296351352061779 0.662621621984748
h -0.020675675687009 -0.859351351822292 1.301621622334933

444.wfx

