%nprocs=8
%mem=4GB
#p b3lyp aug-cc-pvqz output=wfx scf=(conver=6) int=(grid=ultrafine)

title

0 1
C   -3.42232127    0.16653527    0.00000000
H   -4.52734265    0.21545352    0.00000000
O   -2.68394725    1.13198626    0.00000000
O   -3.01424928   -1.12993738    0.00000000
H   -2.03892166   -1.11784311    0.00000000

HBC6_6_1.94_monomerA.wfx

