%nprocs=8
%mem=4GB
#p b3lyp aug-cc-pvqz output=wfx scf=(conver=6) int=(grid=ultrafine)

title

0 1
C   -2.89338469    0.19577496    0.00000000
H   -3.99667367    0.27042675    0.00000000
O   -2.12532927    1.13908975    0.00000000
O   -2.52303889   -1.11116394    0.00000000
H   -1.54758478   -1.13325561    0.00000000

HBC6_1_1.61_monomerB.wfx

