%nprocs=8
%mem=4GB
#p b3lyp aug-cc-pvqz output=wfx scf=(conver=6) int=(grid=ultrafine)

title

0 1
C    1.69147262   -0.17006280    0.00000000
H    2.79500199   -0.28101305    0.00000000
O    1.02814129   -1.21720864    0.00000000
O    1.36966587    1.08860681    0.00000000
H    0.34380745    1.18798183    0.00000000
C   -1.69147262    0.17006280    0.00000000
H   -2.79500199    0.28101305    0.00000000
O   -1.02814129    1.21720864    0.00000000
O   -1.36966587   -1.08860681    0.00000000
H   -0.34380745   -1.18798183    0.00000000

HBC6_1_0.94_dimer.wfx

