%nprocs=8
%mem=4GB
#p b3lyp aug-cc-pvqz output=wfx scf=(conver=6) int=(grid=ultrafine)

title

0 1
C   -1.92586862    0.12572004    0.00000000
H   -3.03796709    0.19311602    0.00000000
O   -1.25948828    1.17632094    0.00000000
N   -1.46411088   -1.13741671    0.00000000
H   -0.43144516   -1.30889080    0.00000000
H   -2.14076353   -1.89029703    0.00000000

HBC6_5_0.97_monomerA.wfx

