%nprocs=8
%mem=4GB
#p b3lyp aug-cc-pvqz output=wfx scf=(conver=6) int=(grid=ultrafine)

title

0 1
C   -1.84016492    0.19051039    0.00000000
H   -2.93982222    0.30435679    0.00000000
O   -1.10803623    1.18439540    0.00000000
O   -1.47971186   -1.07967254    0.00000000
H   -0.47644336   -1.13716323    0.00000000

HBC6_1_1.03_monomerB.wfx

