%nprocs=8
%mem=4GB
#p b3lyp aug-cc-pvqz output=wfx scf=(conver=6) int=(grid=ultrafine)

title

0 1
C   -1.93997588    0.19747119    0.00000000
H   -3.03876443    0.30931746    0.00000000
O   -1.18372180    1.16964417    0.00000000
O   -1.56485002   -1.08053745    0.00000000
H   -0.57046128   -1.12083453    0.00000000

HBC6_1_1.08_monomerB.wfx

