%nprocs=8
%mem=4GB
#p b3lyp aug-cc-pvqz output=wfx scf=(conver=6) int=(grid=ultrafine)

title

0 1
C   -2.02376044    0.12137130    0.00000000
H   -3.13449129    0.18360767    0.00000000
O   -1.34361035    1.16254229    0.00000000
N   -1.52737885   -1.13528332    0.00000000
H   -0.49758591   -1.27514722    0.00000000
H   -2.16905903   -1.91790148    0.00000000
C    2.06981923   -0.10799978    0.00000000
H    3.17183809   -0.16974799    0.00000000
N    1.34787373   -1.19906629    0.00000000
H    1.97244050   -2.00991317    0.00000000
N    1.53167706    1.13850851    0.00000000
H    0.50945141    1.24775624    0.00000000
H    2.13551288    1.94717878    0.00000000

HBC6_5_1.02_dimer.wfx

