%nprocs=8
%mem=4GB
#p b3lyp aug-cc-pvqz output=wfx scf=(conver=6) int=(grid=ultrafine)

title

0 1
C   -3.12831510    0.17084992    0.00000000
H   -4.23295676    0.22611350    0.00000000
O   -2.38703135    1.13479845    0.00000000
O   -2.72349375   -1.12568269    0.00000000
H   -1.74750630   -1.11756461    0.00000000

HBC6_6_1.78_monomerA.wfx

