%nprocs=8
%mem=4GB
#p b3lyp aug-cc-pvqz output=wfx scf=(conver=6) int=(grid=ultrafine)

title

0 1
C    1.80849126   -0.13489609    0.00000000
H    2.91397761   -0.22261770    0.00000000
N    1.15496921   -1.26599407    0.00000000
H    1.83228961   -2.02978225    0.00000000
N    1.40124345    1.14388415    0.00000000
H    0.39074481    1.36097240    0.00000000
H    2.11873085    1.85410086    0.00000000

HBC6_5_0.9_monomerB.wfx

