%nprocs=8
%mem=4GB
#p b3lyp aug-cc-pvqz output=wfx scf=(conver=6) int=(grid=ultrafine)

title

0 1
C   -1.68442643    0.20364693    0.00000000
H   -2.78917270    0.34190070    0.00000000
O   -1.02504588    1.24486390    0.00000000
O   -1.38766062   -1.06424798    0.00000000
H   -0.36064758   -1.17759060    0.00000000

HBC6_4_0.89_monomerA.wfx

