%nprocs=8
%mem=4GB
#p b3lyp aug-cc-pvqz output=wfx scf=(conver=6) int=(grid=ultrafine)

title

0 1
C   -2.04736978    0.10381896    0.00000000
H   -3.15111193    0.15978802    0.00000000
N   -1.32968607    1.19773394    0.00000000
H   -1.95888022    2.00487461    0.00000000
N   -1.52453108   -1.14670134    0.00000000
H   -0.49489283   -1.27394294    0.00000000
H   -2.15004136   -1.93933564    0.00000000

HBC6_3_1.0_monomerB.wfx

