%nprocs=8
%mem=4GB
#p b3lyp aug-cc-pvqz output=wfx scf=(conver=6) int=(grid=ultrafine)

title

0 1
C    4.04459226   -0.12785598    0.00000000
H    5.14896015   -0.16372034    0.00000000
N    3.27114001   -1.16876693    0.00000000
H    3.84998346   -2.01526327    0.00000000
N    3.53511346    1.15017556    0.00000000
H    2.53063281    1.28082664    0.00000000
H    4.14039777    1.95697653    0.00000000

HBC6_5_2.0_monomerB.wfx

