%nprocs=8
%mem=4GB
#p b3lyp aug-cc-pvqz output=wfx scf=(conver=6) int=(grid=ultrafine)

title

0 1
C    1.92699581   -0.17306795    0.00000000
H    3.02703743   -0.26941835    0.00000000
N    1.13373794   -1.21065729    0.00000000
H    1.67232278   -2.07790126    0.00000000
N    1.51877490    1.11463167    0.00000000
H    0.51255074    1.32398473    0.00000000
H    2.21287037    1.84762526    0.00000000

HBC6_6_1.06_monomerB.wfx

