%nprocs=8
%mem=4GB
#p b3lyp aug-cc-pvqz output=wfx scf=(conver=6) int=(grid=ultrafine)

title

0 1
C   -2.83430026    0.17412588    0.00000000
H   -3.93836628    0.23696684    0.00000000
O   -2.09196716    1.13877607    0.00000000
O   -2.42840583   -1.12038969    0.00000000
H   -1.45107051   -1.11332814    0.00000000

HBC6_6_1.61_monomerA.wfx

