%nprocs=8
%mem=4GB
#p b3lyp aug-cc-pvqz output=wfx scf=(conver=6) int=(grid=ultrafine)

title

0 1
C    2.93005123   -0.13606441    0.00000000
H    4.03321099   -0.18793570    0.00000000
N    2.14816261   -1.17431528    0.00000000
H    2.72399657   -2.02298552    0.00000000
N    2.42557457    1.14138666    0.00000000
H    1.42000011    1.27687473    0.00000000
H    3.03409167    1.94580891    0.00000000

HBC6_5_1.45_monomerB.wfx

