%nprocs=8
%mem=4GB
#p b3lyp aug-cc-pvqz output=wfx scf=(conver=6) int=(grid=ultrafine)

title

0 1
C   -2.07299095    0.12047764    0.00000000
H   -3.18330109    0.18128485    0.00000000
O   -1.38900859    1.15844919    0.00000000
N   -1.56461787   -1.13434964    0.00000000
H   -0.53656198   -1.26288353    0.00000000
H   -2.19324500   -1.92734321    0.00000000

HBC6_5_1.05_monomerA.wfx

