%nprocs=8
%mem=4GB
#p b3lyp aug-cc-pvqz output=wfx scf=(conver=6) int=(grid=ultrafine)

title

0 1
C   -1.87720296    0.13037316    0.00000000
H   -2.99024880    0.20231026    0.00000000
O   -1.21984382    1.18650518    0.00000000
N   -1.43964187   -1.13803078    0.00000000
H   -0.40644181   -1.33086253    0.00000000
H   -2.13868738   -1.87029717    0.00000000

HBC6_5_0.95_monomerA.wfx

