%nprocs=8
%mem=4GB
#p b3lyp aug-cc-pvqz output=wfx scf=(conver=6) int=(grid=ultrafine)

title

0 1
C   -2.34452726    0.16814176    0.00000000
H   -3.44693630    0.24477572    0.00000000
O   -1.61510986    1.14962012    0.00000000
O   -1.90907877   -1.10941692    0.00000000
H   -0.92394094   -1.08850288    0.00000000

HBC6_6_1.33_monomerA.wfx

