%nprocs=8
%mem=4GB
#p b3lyp aug-cc-pvqz output=wfx scf=(conver=6) int=(grid=ultrafine)

title

0 1
C    2.44391781   -0.16472698    0.00000000
H    3.54466133   -0.24124517    0.00000000
N    1.61976719   -1.17478374    0.00000000
H    2.15288994   -2.05011167    0.00000000
N    1.96885825    1.12195665    0.00000000
H    0.96338922    1.27845400    0.00000000
H    2.59632255    1.91191489    0.00000000

HBC6_6_1.33_monomerB.wfx

