%nprocs=8
%mem=4GB
#p b3lyp aug-cc-pvqz output=wfx scf=(conver=6) int=(grid=ultrafine)

title

0 1
C    1.79214890   -0.16793868    0.00000000
H    2.90351314   -0.27208239    0.00000000
O    1.13654074   -1.22317842    0.00000000
N    1.41655781    1.11709296    0.00000000
H    0.40800979    1.35225476    0.00000000
H    2.15197143    1.81156642    0.00000000

HBC6_2_0.9_monomerA.wfx

