%nprocs=8
%mem=4GB
#p b3lyp aug-cc-pvqz output=wfx scf=(conver=6) int=(grid=ultrafine)

title

0 1
C   -2.03992872    0.20295867    0.00000000
H   -3.13866374    0.31227513    0.00000000
O   -1.27022640    1.16073661    0.00000000
O   -1.66162256   -1.08294418    0.00000000
H   -0.67334166   -1.11546236    0.00000000

HBC6_1_1.14_monomerB.wfx

