%nprocs=8
%mem=4GB
#p b3lyp aug-cc-pvqz output=wfx scf=(conver=6) int=(grid=ultrafine)

title

0 1
C    1.99581166   -0.12937222    0.00000000
H    3.10488983   -0.20126473    0.00000000
O    1.31722472   -1.17176432    0.00000000
N    1.50061758    1.12716306    0.00000000
H    0.47842639    1.26369880    0.00000000
H    2.13649227    1.91403520    0.00000000

HBC6_2_1.0_monomerA.wfx

