%nprocs=8
%mem=4GB
#p b3lyp aug-cc-pvqz output=wfx scf=(conver=6) int=(grid=ultrafine)

title

0 1
C    4.99855171   -0.12037120    0.00000000
H    6.10329053   -0.14697466    0.00000000
N    4.23217198   -1.16574424    0.00000000
H    4.81516518   -2.00932380    0.00000000
N    4.47966407    1.15461725    0.00000000
H    3.47428778    1.27673150    0.00000000
H    5.07887010    1.96589319    0.00000000
C   -4.99855171    0.12037120    0.00000000
H   -6.10329053    0.14697466    0.00000000
N   -4.23217198    1.16574424    0.00000000
H   -4.81516518    2.00932380    0.00000000
N   -4.47966407   -1.15461725    0.00000000
H   -3.47428778   -1.27673150    0.00000000
H   -5.07887010   -1.96589319    0.00000000

HBC6_3_2.44_dimer.wfx

