%nprocs=8
%mem=4GB
#p b3lyp aug-cc-pvqz output=wfx scf=(conver=6) int=(grid=ultrafine)

title

0 1
C    1.69587997   -0.18498638    0.00000000
H    2.80117416   -0.31097584    0.00000000
N    1.05127931   -1.32038822    0.00000000
H    1.74163210   -2.07111657    0.00000000
N    1.41625166    1.12650330    0.00000000
H    0.43768191    1.44670293    0.00000000
H    2.21582070    1.74279349    0.00000000

HBC6_5_0.85_monomerB.wfx

