%nprocs=8
%mem=4GB
#p b3lyp aug-cc-pvqz output=wfx scf=(conver=6) int=(grid=ultrafine)

title

0 1
C    5.05643837   -0.12129136    0.00000000
H    6.16113003   -0.14857573    0.00000000
N    4.28876097   -1.16580235    0.00000000
H    4.87088844   -2.00997853    0.00000000
N    4.53935952    1.15434078    0.00000000
H    3.53425488    1.27830661    0.00000000
H    5.13978851    1.96474473    0.00000000

HBC6_5_2.5_monomerB.wfx

