%nprocs=8
%mem=4GB
#p b3lyp aug-cc-pvqz output=wfx scf=(conver=6) int=(grid=ultrafine)

title

0 1
C   -2.39092365    0.20853307    0.00000000
H   -3.49171140    0.30454226    0.00000000
O   -1.61118653    1.14785646    0.00000000
O   -2.02488292   -1.09452849    0.00000000
H   -1.04594759   -1.12557184    0.00000000

HBC6_1_1.33_monomerB.wfx

