%nprocs=8
%mem=4GB
#p b3lyp aug-cc-pvqz output=wfx scf=(conver=6) int=(grid=ultrafine)

title

0 1
C   -1.68224527    0.20007686    0.00000000
H   -2.79851036    0.32731687    0.00000000
O   -1.03337695    1.25685782    0.00000000
N   -1.42371554   -1.11002338    0.00000000
H   -0.41476039   -1.44699423    0.00000000
H   -2.24807926   -1.69769344    0.00000000

HBC6_5_0.85_monomerA.wfx

