%nprocs=8
%mem=4GB
#p b3lyp aug-cc-pvqz output=wfx scf=(conver=6) int=(grid=ultrafine)

title

0 1
C   -2.00288568    0.15766229    0.00000000
H   -3.10533408    0.24633212    0.00000000
O   -1.30161674    1.16963551    0.00000000
O   -1.55791984   -1.09749465    0.00000000
H   -0.54668214   -1.09529505    0.00000000

HBC6_6_1.14_monomerA.wfx

