%nprocs=8
%mem=4GB
#p b3lyp aug-cc-pvqz output=wfx scf=(conver=6) int=(grid=ultrafine)

title

0 1
C   -1.73161493    0.16885424    0.00000000
H   -2.84774407    0.27229826    0.00000000
O   -1.09203207    1.23345283    0.00000000
N   -1.40935402   -1.12703884    0.00000000
H   -0.38663445   -1.41522920    0.00000000
H   -2.19618815   -1.76421756    0.00000000

HBC6_5_0.88_monomerA.wfx

