%nprocs=8
%mem=4GB
#p b3lyp aug-cc-pvqz output=wfx scf=(conver=6) int=(grid=ultrafine)

title

0 1
C   -2.49735133    0.11505842    0.00000000
H   -3.59972532    0.16584719    0.00000000
N   -1.73648339    1.17469470    0.00000000
H   -2.33188443    2.00962361    0.00000000
N   -1.94973034   -1.14125016    0.00000000
H   -0.93377159   -1.23689923    0.00000000
H   -2.53164153   -1.96514450    0.00000000

HBC6_3_1.22_monomerB.wfx

