%nprocs=8
%mem=4GB
#p b3lyp aug-cc-pvqz output=wfx scf=(conver=6) int=(grid=ultrafine)

title

0 1
C   -2.14914999    0.16086986    0.00000000
H   -3.25109115    0.24371672    0.00000000
O   -1.43435230    1.15849662    0.00000000
O   -1.69755858   -1.10315341    0.00000000
H   -0.70240660   -1.08186738    0.00000000

HBC6_6_1.22_monomerA.wfx

