%nprocs=8
%mem=4GB
#p b3lyp aug-cc-pvqz output=wfx scf=(conver=6) int=(grid=ultrafine)

title

0 1
C   -2.12238102    0.12001003    0.00000000
H   -3.23241727    0.17981127    0.00000000
O   -1.43641896    1.15577795    0.00000000
N   -1.60476162   -1.13362638    0.00000000
H   -0.57842142   -1.25321622    0.00000000
H   -2.22287071   -1.93470173    0.00000000

HBC6_5_1.07_monomerA.wfx

