%nprocs=8
%mem=4GB
#p b3lyp aug-cc-pvqz output=wfx scf=(conver=6) int=(grid=ultrafine)

title

0 1
C   -2.14607510    0.12985845    0.00000000
H   -3.25466017    0.19693865    0.00000000
O   -1.45130851    1.15890002    0.00000000
N   -1.63157574   -1.12717703    0.00000000
H   -0.61244489   -1.24732130    0.00000000
H   -2.24305687   -1.93302516    0.00000000

HBC6_2_1.07_monomerB.wfx

