%nprocs=8
%mem=4GB
#p b3lyp aug-cc-pvqz output=wfx scf=(conver=6) int=(grid=ultrafine)

title

0 1
C   -4.89119351    0.15168886    0.00000000
H   -5.99692859    0.18239314    0.00000000
O   -4.16502480    1.12540358    0.00000000
O   -4.46601853   -1.14087529    0.00000000
H   -3.49177332   -1.11255947    0.00000000

HBC6_6_2.78_monomerA.wfx

