%nprocs=8
%mem=4GB
#p b3lyp aug-cc-pvqz output=wfx scf=(conver=6) int=(grid=ultrafine)

title

0 1
C   -2.27180865    0.17975090    0.00000000
H   -3.37333986    0.26380020    0.00000000
O   -1.52660441    1.14998794    0.00000000
O   -1.85932830   -1.10443098    0.00000000
H   -0.87597638   -1.10468982    0.00000000

HBC6_4_1.21_monomerA.wfx

