%nprocs=8
%mem=4GB
#p b3lyp aug-cc-pvqz output=wfx scf=(conver=6) int=(grid=ultrafine)

title

0 1
C    1.96699000   -0.11019704    0.00000000
H    3.07015648   -0.17705172    0.00000000
N    1.27163617   -1.21778291    0.00000000
H    1.91584742   -2.01186499    0.00000000
N    1.45874144    1.14162823    0.00000000
H    0.43630966    1.27622061    0.00000000
H    2.09327641    1.92665702    0.00000000

HBC6_5_0.97_monomerB.wfx

