%nprocs=8
%mem=4GB
#p b3lyp aug-cc-pvqz output=wfx scf=(conver=6) int=(grid=ultrafine)

title

0 1
C    1.69498253   -0.13051889    0.00000000
H    2.80633596   -0.21609653    0.00000000
N    1.09905882   -1.29491251    0.00000000
H    1.82089470   -2.01478416    0.00000000
N    1.37286317    1.16800831    0.00000000
H    0.35212595    1.46532985    0.00000000
H    2.16581591    1.79503126    0.00000000

HBC6_3_0.83_monomerA.wfx

