%nprocs=8
%mem=4GB
#p b3lyp aug-cc-pvqz output=wfx scf=(conver=6) int=(grid=ultrafine)

title

0 1
C   -3.15990010    0.13729708    0.00000000
H   -4.27217260    0.18465048    0.00000000
O   -2.46166577    1.14950598    0.00000000
N   -2.66867708   -1.14125954    0.00000000
H   -1.66354000   -1.28595015    0.00000000
H   -3.28934347   -1.93968912    0.00000000

HBC6_5_1.6_monomerA.wfx

