%nprocs=8
%mem=4GB
#p b3lyp aug-cc-pvqz output=wfx scf=(conver=6) int=(grid=ultrafine)

title

0 1
C   -2.14005789    0.20652795    0.00000000
H   -3.23921879    0.31260333    0.00000000
O   -1.36379229    1.15537668    0.00000000
O   -1.76438167   -1.08605925    0.00000000
H   -0.78011615   -1.11617462    0.00000000

HBC6_1_1.19_monomerB.wfx

