%nprocs=8
%mem=4GB
#p b3lyp aug-cc-pvqz output=wfx scf=(conver=6) int=(grid=ultrafine)

title

0 1
C    1.95643502   -0.17990567    0.00000000
H    3.06274786   -0.27703752    0.00000000
O    1.20521341   -1.17264505    0.00000000
N    1.55000583    1.10795923    0.00000000
H    0.54440542    1.31463815    0.00000000
H    2.24038620    1.84747610    0.00000000

HBC6_4_1.03_monomerB.wfx

