%nprocs=8
%mem=4GB
#p b3lyp aug-cc-pvqz output=wfx scf=(conver=6) int=(grid=ultrafine)

title

0 1
C    3.99646944   -0.16803989    0.00000000
H    5.10156877   -0.21450609    0.00000000
O    3.25414999   -1.12972545    0.00000000
O    3.59284622    1.13117851    0.00000000
H    2.61830479    1.12095879    0.00000000

HBC6_1_2.22_monomerA.wfx

