%nprocs=8
%mem=4GB
#p b3lyp aug-cc-pvqz output=wfx scf=(conver=6) int=(grid=ultrafine)

title

0 1
C   -2.66627924    0.13246574    0.00000000
H   -3.77728386    0.18752690    0.00000000
O   -1.97376452    1.15272174    0.00000000
N   -2.15448827   -1.13525942    0.00000000
H   -1.14315421   -1.25838806    0.00000000
H   -2.76095466   -1.94449331    0.00000000
C    2.72710220   -0.13482909    0.00000000
H    3.82978184   -0.18947766    0.00000000
N    1.94426866   -1.17439124    0.00000000
H    2.52008027   -2.02303547    0.00000000
N    2.21808889    1.13969445    0.00000000
H    1.21077019    1.27082675    0.00000000
H    2.82358807    1.94643158    0.00000000

HBC6_5_1.35_dimer.wfx

