%nprocs=8
%mem=4GB
#p b3lyp aug-cc-pvqz output=wfx scf=(conver=6) int=(grid=ultrafine)

title

0 1
C   -1.73348582    0.18223355    0.00000000
H   -2.83797096    0.30364160    0.00000000
O   -1.07653282    1.22594575    0.00000000
O   -1.38752757   -1.07701453    0.00000000
H   -0.36204548   -1.15331467    0.00000000

HBC6_4_0.92_monomerA.wfx

