%nprocs=8
%mem=4GB
#p b3lyp aug-cc-pvqz output=wfx scf=(conver=6) int=(grid=ultrafine)

title

0 1
C   -1.81131260    0.15832706    0.00000000
H   -2.91739607    0.25779849    0.00000000
O   -1.14367167    1.19940056    0.00000000
O   -1.41977566   -1.09000937    0.00000000
H   -0.35849776   -1.15413164    0.00000000

HBC6_6_1.03_monomerA.wfx

