%nprocs=8
%mem=4GB
#p b3lyp aug-cc-pvqz output=wfx scf=(conver=6) int=(grid=ultrafine)

title

0 1
C   -1.89005169    0.19417983    0.00000000
H   -2.98915191    0.30709901    0.00000000
O   -1.14427894    1.17618187    0.00000000
O   -1.52059687   -1.07982181    0.00000000
H   -0.52216282   -1.12736965    0.00000000

HBC6_1_1.06_monomerB.wfx

