%nprocs=8
%mem=4GB
#p b3lyp aug-cc-pvqz output=wfx scf=(conver=6) int=(grid=ultrafine)

title

0 1
C   -4.94899199    0.15261986    0.00000000
H   -6.05466697    0.18398552    0.00000000
O   -4.22139968    1.12529943    0.00000000
O   -4.52579681   -1.14045626    0.00000000
H   -3.55156372   -1.11418323    0.00000000
C    5.04698843   -0.13094494    0.00000000
H    6.16016561   -0.16252342    0.00000000
O    4.35243631   -1.14332963    0.00000000
N    4.55565401    1.14984957    0.00000000
H    3.55239498    1.29639409    0.00000000
H    5.17702398    1.94785550    0.00000000

HBC6_4_2.63_dimer.wfx

