%nprocs=8
%mem=4GB
#p b3lyp aug-cc-pvqz output=wfx scf=(conver=6) int=(grid=ultrafine)

title

0 1
C   -3.46303289    0.16994236    0.00000000
H   -4.56795025    0.22032609    0.00000000
O   -2.71952203    1.13148929    0.00000000
O   -3.06229197   -1.12882028    0.00000000
H   -2.08723785   -1.12403398    0.00000000

HBC6_4_1.84_monomerA.wfx

