%nprocs=8
%mem=4GB
#p b3lyp aug-cc-pvqz output=wfx scf=(conver=6) int=(grid=ultrafine)

title

0 1
C   -4.94899199    0.15261986    0.00000000
H   -6.05466697    0.18398552    0.00000000
O   -4.22139968    1.12529943    0.00000000
O   -4.52579681   -1.14045626    0.00000000
H   -3.55156372   -1.11418323    0.00000000

HBC6_4_2.63_monomerA.wfx

