%nprocs=8
%mem=4GB
#p b3lyp aug-cc-pvqz output=wfx scf=(conver=6) int=(grid=ultrafine)

title

0 1
C   -3.12831510    0.17084992    0.00000000
H   -4.23295676    0.22611350    0.00000000
O   -2.38703135    1.13479845    0.00000000
O   -2.72349375   -1.12568269    0.00000000
H   -1.74750630   -1.11756461    0.00000000
C    3.26369185   -0.14893273    0.00000000
H    4.36705371   -0.20413229    0.00000000
N    2.46830003   -1.17413526    0.00000000
H    3.02869067   -2.03292199    0.00000000
N    2.77871570    1.13816091    0.00000000
H    1.77677840    1.28984953    0.00000000
H    3.39990002    1.93285794    0.00000000

HBC6_6_1.78_dimer.wfx

