%nprocs=8
%mem=4GB
#p b3lyp aug-cc-pvqz output=wfx scf=(conver=6) int=(grid=ultrafine)

title

0 1
C   -2.12445982    0.17139548    0.00000000
H   -3.22540810    0.26019471    0.00000000
O   -1.39708971    1.15905225    0.00000000
O   -1.69213335   -1.10003833    0.00000000
H   -0.70338392   -1.09153044    0.00000000
C    2.16162183   -0.17430715    0.00000000
H    3.26847086   -0.26358230    0.00000000
O    1.40801417   -1.15997383    0.00000000
N    1.71474383    1.11078804    0.00000000
H    0.70747623    1.28502211    0.00000000
H    2.36711721    1.88391930    0.00000000

HBC6_4_1.13_dimer.wfx

