%nprocs=8
%mem=4GB
#p b3lyp aug-cc-pvqz output=wfx scf=(conver=6) int=(grid=ultrafine)

title

0 1
C   -3.49721450    0.13962406    0.00000000
H   -4.60973564    0.18404076    0.00000000
O   -2.79431063    1.14771035    0.00000000
N   -3.01520025   -1.14321645    0.00000000
H   -2.01252678   -1.29808475    0.00000000
H   -3.64229745   -1.93673374    0.00000000

HBC6_2_1.75_monomerB.wfx

