%nprocs=8
%mem=4GB
#p b3lyp aug-cc-pvqz output=wfx scf=(conver=6) int=(grid=ultrafine)

title

0 1
C    3.23430882   -0.13492712    0.00000000
H    4.33798775   -0.18191466    0.00000000
N    2.45446506   -1.17291481    0.00000000
H    3.03058764   -2.02136402    0.00000000
N    2.73117559    1.14418616    0.00000000
H    1.72670616    1.28092608    0.00000000
H    3.34065139    1.94785431    0.00000000

HBC6_5_1.6_monomerB.wfx

