%nprocs=8
%mem=4GB
#p b3lyp aug-cc-pvqz output=wfx scf=(conver=6) int=(grid=ultrafine)

title

0 1
C   -2.63833181    0.17421223    0.00000000
H   -3.74182732    0.24259469    0.00000000
O   -1.89813960    1.14236018    0.00000000
O   -2.22587715   -1.11630144    0.00000000
H   -1.24674157   -1.10613581    0.00000000

HBC6_6_1.5_monomerA.wfx

