%nprocs=8
%mem=4GB
#p b3lyp aug-cc-pvqz output=wfx scf=(conver=6) int=(grid=ultrafine)

title

0 1
C    2.89633015   -0.14585783    0.00000000
H    4.00779084   -0.20183046    0.00000000
O    2.18702642   -1.15195636    0.00000000
N    2.41611039    1.13579344    0.00000000
H    1.41208234    1.29109009    0.00000000
H    3.04382363    1.92881894    0.00000000
C   -2.89633015    0.14585783    0.00000000
H   -4.00779084    0.20183046    0.00000000
O   -2.18702642    1.15195636    0.00000000
N   -2.41611039   -1.13579344    0.00000000
H   -1.41208234   -1.29109009    0.00000000
H   -3.04382363   -1.92881894    0.00000000

HBC6_2_1.45_dimer.wfx

