%nprocs=8
%mem=4GB
#p b3lyp aug-cc-pvqz output=wfx scf=(conver=6) int=(grid=ultrafine)

title

0 1
C    2.42357564   -0.12508788    0.00000000
H    3.52532822   -0.18210400    0.00000000
N    1.64921165   -1.17564041    0.00000000
H    2.23277319   -2.01853948    0.00000000
N    1.89367698    1.13774591    0.00000000
H    0.88057502    1.25034358    0.00000000
H    2.48658153    1.95391122    0.00000000

HBC6_5_1.2_monomerB.wfx

