%nprocs=8
%mem=4GB
#p b3lyp aug-cc-pvqz output=wfx scf=(conver=6) int=(grid=ultrafine)

title

0 1
C    1.89495225   -0.13840942    0.00000000
H    3.00512682   -0.21949780    0.00000000
O    1.23153916   -1.19064307    0.00000000
N    1.43998729    1.12629331    0.00000000
H    0.41948596    1.29629750    0.00000000
H    2.11367741    1.88100998    0.00000000

HBC6_2_0.95_monomerA.wfx

