%nprocs=8
%mem=4GB
#p b3lyp aug-cc-pvqz output=wfx scf=(conver=6) int=(grid=ultrafine)

title

0 1
C   -1.79626801    0.11585476    0.00000000
H   -2.90515430    0.18737513    0.00000000
N   -1.16061610    1.25790391    0.00000000
H   -1.85182448    2.00884269    0.00000000
N   -1.39570164   -1.16335736    0.00000000
H   -0.36558676   -1.39719019    0.00000000
H   -2.13213780   -1.85550007    0.00000000

HBC6_3_0.88_monomerB.wfx

