%nprocs=8
%mem=4GB
#p b3lyp aug-cc-pvqz output=wfx scf=(conver=6) int=(grid=ultrafine)

title

0 1
C   -1.87970385    0.16163715    0.00000000
H   -2.98177538    0.26162942    0.00000000
O   -1.19849611    1.18849760    0.00000000
O   -1.45487899   -1.09052331    0.00000000
H   -0.44572390   -1.10219203    0.00000000

HBC6_4_1.0_monomerA.wfx

