%nprocs=4
%mem=4GB
#p pbepbe aug-cc-pvtz output=wfx scf=(conver=6) int=(grid=ultrafine)

title

0 1
c 0.000000000000000 0.000000000000000 0.665593801192416
c 0.000000000000000 0.000000000000000 -0.665593801192416
h 0.000000000000000 0.921493315722368 1.231670536537397
h 0.000000000000000 -0.921493315722368 1.231670536537397
h 0.000000000000000 0.921493315722368 -1.231670536537397
h 0.000000000000000 -0.921493315722368 -1.231670536537397

c2h4.wfx

