%nprocs=4
%mem=4GB
#p pbepbe aug-cc-pvtz output=wfx scf=(conver=6) int=(grid=ultrafine)

title

0 1
c -0.763094701875124 0.000000000000000 0.000000000000000
c 0.763094701875124 0.000000000000000 0.000000000000000
h 1.158310700110565 -0.443642062947930 -0.914095418346280
h -1.158310700110565 -1.013326728501077 -0.074639916094411
h 1.158310700110565 -0.569812726437626 0.841254175583867
h 1.158310700110565 1.013453731031138 0.072848122066125
h -1.158310700110565 0.442020134803601 0.914883892387079
h -1.158310700110565 0.571305006165850 -0.840243447115460

C2H6.wfx

