%nprocs=4
%mem=4GB
#p pbepbe aug-cc-pvtz output=wfx scf=(conver=6) int=(grid=ultrafine)

title

0 2
c 0.000000000000000 0.000000000000000 0.000000000000000
h 0.538658079753395 0.932983162040371 0.000000000000000
h 0.538658079753395 -0.932983162040371 0.000000000000000
h -1.077316159506791 0.000000000000000 0.000000000000000

CH3.wfx

