%nprocs=4
%mem=4GB
#p pbepbe aug-cc-pvtz output=wfx scf=(conver=6) int=(grid=ultrafine)

title

0 1
c 0.000000000000000 0.000000000000000 -0.149916961547964
cl 0.000000000000000 0.000000000000000 1.632801677610457
h -0.513997760361596 -0.890270235922894 -0.494294905354164
h -0.513997760361596 0.890270235922894 -0.494294905354164
h 1.027995520723192 0.000000000000000 -0.494294905354164

ch3cl.wfx

