%nprocs=4
%mem=4GB
#p pbepbe aug-cc-pvtz output=wfx scf=(conver=6) int=(grid=ultrafine)

title

-1 1
cl 0.000000000000000 0.000000000000000 2.122964149946533
c 0.000000000000000 0.000000000000000 0.272465848025862
h -0.513161660372024 -0.888822068260752 -0.055314452632891
h -0.513161660372024 0.888822068260752 -0.055314452632891
h 1.026323320744053 0.000000000000000 -0.055314452632891
f 0.000000000000000 0.000000000000000 -2.229486640073701

fch3clcomp1.wfx

