%nprocs=4
%mem=4GB
#p pbepbe aug-cc-pvtz output=wfx scf=(conver=6) int=(grid=ultrafine)

title

0 2
p 0.217428860642668 0.000088000053080 -0.111248924561876
h 0.246610337810363 1.034668445323512 0.852165809624992
h 0.262661340901315 -1.025058587215517 0.861622206342496
h -1.266416312053416 -0.010952010262141 -0.150626059007475
h -2.504288805475487 0.000029000022303 0.105575086531374

RKT12.wfx

