%nprocs=4
%mem=4GB
#p pbepbe aug-cc-pvtz output=wfx scf=(conver=6) int=(grid=ultrafine)

title

0 3
c 0.000290000223029 -1.142287214234460 0.000000000000000
h -1.055957244425087 -1.384735044122054 0.000000000000000
h 0.520167437436547 -1.407389120421792 0.912449677227565
h 0.520167437436547 -1.407389120421792 -0.912449677227565
h 0.011559981957090 0.160098860218444 0.000000000000000
o 0.000290000223029 1.361641750739186 0.000000000000000

RKT11.wfx

