%nprocs=4
%mem=4GB
#p pbepbe aug-cc-pvtz output=wfx scf=(conver=6) int=(grid=ultrafine)

title

0 1
c -1.299622181892438 -0.904855984284299 -0.020154984014451
c -1.205947232427837 0.505817209894003 -0.013414007225106
c 0.000000000000000 1.183361949165216 0.153301049796897
c 1.205947232427837 0.505814034830751 -0.013421997800956
c 1.299627473664525 -0.904850692512213 -0.020146993438601
h 2.168795747001513 -1.327552154961819 -0.515696948378378
h 1.032043726368905 -1.454385348316670 0.873168853033929
h 2.037131165732236 1.085585876334041 -0.398504305409620
h 0.000001000002046 2.262915205321331 0.085905040510875
h -2.037131165732236 1.085585876334041 -0.398481021612442
h -2.168795747001513 -1.327541571417647 -0.515715998757888
h -0.000011000006635 -1.181943754246194 -0.520808271036149
h -1.032059601685163 -1.454395931860842 0.873158269489758

RKT22.wfx

