%nprocs=4
%mem=4GB
#p pbepbe aug-cc-pvtz output=wfx scf=(conver=6) int=(grid=ultrafine)

title

0 2
c -1.485702055521026 -0.448155944537202 -0.000019000001839
c -0.505041965283419 0.701741896311199 0.000029000022303
n 1.865159156484657 -0.340167280757450 -0.000056999793846
h -1.354190935642239 -1.076505195434637 -0.880503249144987
h -1.354159185009724 -1.076611030876355 0.880386830159097
h -2.517026100886249 -0.086172804178421 0.000025000024701
h -0.522224349246336 1.316116635484189 -0.897219957164345
h -0.522205298866827 1.316031967130814 0.897336376150235
h 0.665048748667568 0.147961122585016 -0.000034000006076
h 2.246643006157188 0.159717323451051 -0.804804449456187
h 2.246441918817924 0.159133111812768 0.805153706413857

RKT20.wfx

