%nprocs=4
%mem=4GB
#p pbepbe aug-cc-pvtz output=wfx scf=(conver=6) int=(grid=ultrafine)

title

0 1
c 2.359793475957941 0.630400798600683 0.290128170547138
c 1.482619542045735 -0.584891109594025 0.000658192077458
c 0.129442643816988 -0.227201136831763 -0.627049760602785
c -0.916709277139505 0.365338818833739 0.351944165980096
c -1.846562206842486 -0.822790091979112 0.642732143897769
o -1.262730251089580 -1.535043038359597 1.733847061619435
c -1.788118211663485 -1.590361034010307 -0.675696756799860
o 3.613046381649391 0.247212827392254 0.836398129476933
o -1.708981217472883 1.382077741772828 -0.247009788935917
o 2.240021485159263 -1.392725048826732 -0.905815739351029
o -0.441183313158787 -1.455125044227090 -1.137170722166656
c -1.084573264666419 2.656537645823773 -0.298435785173585
h 2.499617465477797 1.201643755563762 -0.641451759139177
h 1.887146511693278 1.282864749616284 1.030334114497350
h 1.307071555368199 -1.140453067874639 0.932670121928132
h 0.281086632865501 0.451626812190217 -1.476791696249274
h -0.465428310993493 0.728416791382220 1.284883095235348
h -2.855756130666689 -0.471768118235713 0.887441125243049
h -1.750609214054524 -2.355968976252566 1.879024050615756
h -2.007029195007035 -2.658533953288104 -0.573829764197049
h -2.487481158495303 -1.147590067128285 -1.399183702451754
h 3.963499354953368 -0.455309119516938 0.268705172105464
h 1.660292528706135 -2.108775994755989 -1.205165716660272
h -0.821460284247003 3.008277619374863 0.709933138682173
h -0.178240332505161 2.648887646308804 -0.920160738093575
h -1.808775209691232 3.343250594021400 -0.740936752085177

C12.wfx

