%nprocs=4
%mem=4GB
#p pbepbe aug-cc-pvtz output=wfx scf=(conver=6) int=(grid=ultrafine)

title

0 1
c 2.457401891670474 0.856771743095817 0.674143795303477
c 1.733966946146159 -0.478190156461436 0.480439810038141
c 0.595921032204119 -0.409665161359494 -0.550125112629334
c -0.679623871923990 0.288010785994187 -0.036510151122774
c -1.792428788152165 -0.757499135056135 -0.249492135123498
o -2.767777714605063 -0.653201143103707 0.784992786781480
c -1.010993846706413 -2.076584035572165 -0.244854135549128
o 3.140063840166726 1.264622712391081 -0.501575116202126
o -0.854250858478962 1.501259694447920 -0.742955097704241
o 2.725221871609667 -1.410105086013067 0.047390842381450
o 0.214671060865759 -1.763577059213758 -0.908664085133982
c -1.844619784129659 2.366179629435616 -0.196711138838236
h 3.156896839111090 0.752896751061784 1.516687731851954
h 1.743562945632238 1.649562683501710 0.917324776929776
h 1.323852976977221 -0.799475132328752 1.452817736671385
h 0.951827005189200 0.078901801828008 -1.460359043920420
h -0.617584876452738 0.493552770221753 1.045366767136323
h -2.243612753999133 -0.584046148247154 -1.235854060570182
h -3.533045656786563 -1.199434101963077 0.563211803967838
h -1.493135810636768 -2.886177974808112 -0.800420093351084
h -0.843363859753605 -2.404884011004395 0.792593786603642
h 3.668553800494981 0.505500769779510 -0.791005094166609
h 2.254748907020674 -2.149376030457661 -0.369345126019140
h -2.849072708269258 1.929166661985704 -0.255096134462719
h -1.626350800692279 2.601849611582680 0.855021781828461
h -1.810827786501680 3.283939560263091 -0.787025094700488

C14.wfx

