%nprocs=4
%mem=4GB
#p pbepbe aug-cc-pvtz output=wfx scf=(conver=6) int=(grid=ultrafine)

title

0 1
c 2.308260826190943 0.567254880400635 0.304238746187928
c 1.432293892044632 -0.670396026415466 0.130113759358468
c 0.146159988986057 -0.428901044651557 -0.676825179815466
c -0.967739927180992 0.345331897116486 0.077983763225339
c -2.134350839013797 -0.660785026872233 0.166477756661646
o -2.820206787367998 -0.668652026614306 1.408977662938853
c -1.458580890248803 -2.007938925364706 -0.064378225804888
o 3.493197736906515 0.264364903361492 1.024218692129828
o -1.446916891102884 1.505534809509970 -0.588488186377644
o 2.248572830646445 -1.628241954193370 -0.545194189657035
o -0.419036968611731 -1.721756947146422 -1.005903154754828
c -0.605232954303428 2.645771723474685 -0.497472193103867
h 1.786250865153009 1.335313822245111 0.881848702998561
h 2.548615807844512 0.977926849473184 -0.689336178943100
h 1.167020911861776 -1.055010997522490 1.128966684209365
h 0.389728970750175 0.051862919073010 -1.630428108112934
h -0.644976951432426 0.610124877057925 1.096951686402452
h -2.820161787196534 -0.436372044154772 -0.660692180716043
h -3.391179744360647 0.109020914678999 1.456569659173073
h -2.113750840779896 -2.759310868785845 -0.508990192257936
h -1.058484920339415 -2.396869896477269 0.883744702602762
h 3.889523707091594 -0.513219038262985 0.603553723716594
h 1.662235874873895 -2.337438900606717 -0.851493166491382
h -0.408131969394447 2.913723703493497 0.550982727702321
h 0.353255973525571 2.491806735142904 -1.012292154615651
h -1.136365914542137 3.466855662040241 -0.983135156656448

C15.wfx

