%nprocs=4
%mem=4GB
#p pbepbe aug-cc-pvtz output=wfx scf=(conver=6) int=(grid=ultrafine)

title

0 1
h -0.538866916016699 -2.243618277054283 1.325793372275364
c -0.658772949685644 -1.368187031238087 0.700088196580848
h -0.796081988241255 1.841654870067564 0.000000000000000
c -0.658772949685644 -0.044670659602096 1.155497324457183
c -0.658772949685644 -1.368187031238087 -0.700088196580848
h -2.232306391525030 0.800125577611965 0.000000000000000
c -1.130850082242261 0.805203579037836 0.000000000000000
c 1.440991639916506 0.520194499008882 0.694895195122682
h -0.787695985886511 0.242651421076341 2.191707615419237
c 1.440991639916506 0.520194499008882 -0.694895195122682
h -0.538866916016699 -2.243618277054283 -1.325793372275364
c -0.658772949685644 -0.044670659602096 -1.155497324457183
h -0.787695985886511 0.242651421076341 -2.191707615419237
h 1.371005620264825 1.456400761890363 -1.236478347196202
h 1.911730772097424 -0.286262727439795 1.241151348508358
h 1.371005620264825 1.456400761890363 1.236478347196202
h 1.911730772097424 -0.286262727439795 -1.241151348508358

02ts.wfx

