%nprocs=4
%mem=4GB
#p pbepbe aug-cc-pvtz output=wfx scf=(conver=6) int=(grid=ultrafine)

title

0 1
h -1.958931800057092 1.231174533206920 1.292398362898231
c -1.060704547839906 1.115286500666211 0.696552195587960
c 0.187772802725554 0.755563399657972 1.243025349034562
c -1.060704547839906 1.115286500666211 -0.696552195587960
h 2.349757409798736 0.204291244863836 0.000000000000000
p 1.420581148891236 1.279454546763679 0.000000000000000
c 0.187772802725554 -1.397498204909681 0.696470195564934
h 0.376795855802169 0.794930410712009 2.309560648511709
c 0.187772802725554 -1.397498204909681 -0.696470195564934
h -1.958931800057092 1.231174533206920 -1.292398362898231
c 0.187772802725554 0.755563399657972 -1.243025349034562
h 0.376795855802169 0.794930410712009 -2.309560648511709
h 1.102461059564896 -1.607048263750167 -1.237100347370859
h -0.720335452266165 -1.634281271397040 1.235148346822744
h 1.102461059564896 -1.607048263750167 1.237100347370859
h -0.720335452266165 -1.634281271397040 -1.235148346822744

08ts.wfx

