%nprocs=4
%mem=4GB
#p pbepbe aug-cc-pvtz output=wfx scf=(conver=6) int=(grid=ultrafine)

title

0 1
c -0.663471949804423 0.000000000000000 0.000000000000000
c 0.663471949804423 0.000000000000000 0.000000000000000
h -1.234598906883114 -0.922517930316354 0.000000000000000
h -1.234598906883114 0.922517930316354 0.000000000000000
h 1.234598906883114 0.922517930316354 0.000000000000000
h 1.234598906883114 -0.922517930316354 0.000000000000000

13_c2h4.wfx

