%nprocs=4
%mem=4GB
#p pbepbe aug-cc-pvtz output=wfx scf=(conver=6) int=(grid=ultrafine)

title

0 1
n 0.000000000000000 0.000000000000000 1.888324967324978
n 0.000000000000000 0.000000000000000 0.751655479104710
c 0.000000000000000 0.000000000000000 -0.543322770132688
h 0.952036927515090 0.000000000000000 -1.048328838148503
h -0.952036927515090 0.000000000000000 -1.048328838148503

13r_3.wfx

