%nprocs=4
%mem=4GB
#p pbepbe aug-cc-pvtz output=wfx scf=(conver=6) int=(grid=ultrafine)

title

0 1
c -1.131778215996882 0.157449306765768 -0.205118901228349
h -1.922656305679543 0.169792802785681 0.525649623886591
n 0.053501370299417 0.122042229075718 -0.082183671642857
n 1.286611420188860 0.240304260864810 -0.114459954929929
h 1.714321731188148 -0.689588599491977 -0.123887096085456

13r_5.wfx

