%nprocs=4
%mem=4GB
#p pbepbe aug-cc-pvtz output=wfx scf=(conver=6) int=(grid=ultrafine)

title

0 1
c 0.000000000000000 0.000000000000000 -0.614656953744043
h 0.000000000000000 0.000000000000000 -1.674392873753775
n 0.000000000000000 0.000000000000000 0.544944958864215
o 0.000000000000000 0.000000000000000 1.744104868633602

13r_4.wfx

