%nprocs=4
%mem=4GB
#p pbepbe aug-cc-pvtz output=wfx scf=(conver=6) int=(grid=ultrafine)

title

0 1
h 0.000000000000000 -1.420641398908156 1.601473449684785
c 0.000000000000000 0.670170188180040 0.814819228796679
c 0.000000000000000 -0.670170188180040 0.814819228796679
c 0.000000000000000 0.786311220791791 -0.699697196471059
c 0.000000000000000 -0.786311220791791 -0.699697196471059
h 0.890109249937700 -1.246599350038124 -1.146101321818840
h -0.890109249937700 -1.246599350038124 -1.146101321818840
h 0.000000000000000 1.420641398908156 1.601473449684785
h -0.890109249937700 1.246599350038124 -1.146101321818840
h 0.890109249937700 1.246599350038124 -1.146101321818840

Cyclobutene.wfx

