%nprocs=4
%mem=4GB
#p pbepbe aug-cc-pvtz output=wfx scf=(conver=6) int=(grid=ultrafine)

title

0 1
h -0.144883040682350 1.244000349308341 2.790787783637596
c -0.079370022286656 0.721429202573286 1.840229516726154
c -0.128693036136283 1.408985395635219 0.677482190233210
c 0.079370022286656 -0.721429202573286 1.840229516726154
c 0.128693036136283 -1.408985395635219 0.677482190233210
h 0.144883040682350 -1.244000349308341 2.790787783637596
h -0.221218062116797 2.492345699836732 0.677508190240510
c -0.006727001888902 0.748467210165407 -0.621344174469971
c 0.006727001888902 -0.748467210165407 -0.621344174469971
h 0.221218062116797 -2.492345699836732 0.677508190240510
c 0.128693036136283 1.497447420474861 -1.739509488444533
c -0.128693036136283 -1.497447420474861 -1.739509488444533
h 0.089546025144026 2.581730724935547 -1.689010474264691
h 0.294457082681903 1.064480298900111 -2.720427763880900
h -0.294457082681903 -1.064480298900111 -2.720427763880900
h -0.089546025144026 -2.581730724935547 -1.689010474264691

ortho-xylylene.wfx

