%nprocs=4
%mem=4GB
#p pbepbe aug-cc-pvtz output=wfx scf=(conver=6) int=(grid=ultrafine)

title

0 1
c 3.146855832524624 0.625485245737345 -0.240142340089273
c 2.078090182040486 1.509820894282816 0.009913821198420
c 0.979391229827190 0.711569380024927 0.470370858980130
c 0.979391229827190 -0.711569380024927 0.470370858980130
c 2.078090182040486 -1.509820894282816 0.009913821198420
c 3.146855832524624 -0.625485245737345 -0.240142340089273
c -0.374094161510429 -1.151343442234020 0.470370858980130
c -1.210594136633528 0.000000000000000 0.470370858980130
c -0.374094161510429 1.151343442234020 0.470370858980130
c 1.567303749903009 2.799552174700326 -0.240142340089273
c 0.377560112293053 3.186123316027585 -0.240142340089273
c -0.793759817852009 2.442941523874357 0.009913821198420
c 1.567303749903009 -2.799552174700326 -0.240142340089273
c 0.377560112293053 -3.186123316027585 -0.240142340089273
c -0.793759817852009 -2.442941523874357 0.009913821198420
c -2.178208844389402 -2.355703642980832 -0.240142340089273
c -2.913510850331289 -1.343647255916223 -0.240142340089273
c -2.568660728376953 0.000000000000000 0.009913821198420
c -2.913510850331289 1.343647255916223 -0.240142340089273
c -2.178208844389402 2.355703642980832 -0.240142340089273

c20bowl.wfx

