%nprocs=4
%mem=4GB
#p pbepbe aug-cc-pvtz output=wfx scf=(conver=6) int=(grid=ultrafine)

title

0 1
c 1.966567157533329 0.000000000000000 -0.699865080422272
c 1.178021498691448 1.180099234052219 -1.119582353270024
c 0.000000000000000 0.719862496282275 -1.811085596843815
c 0.000000000000000 -0.719862496282275 -1.811085596843815
c 1.178021498691448 -1.180099234052219 -1.119582353270024
c -1.178021498691448 1.180099234052219 -1.119582353270024
c -1.966567157533329 0.000000000000000 -0.699865080422272
c -1.178021498691448 -1.180099234052219 -1.119582353270024
c -0.763725979846460 1.951490367169117 0.000000000000000
c -1.178021498691448 1.180099234052219 1.119582353270024
c -1.966567157533329 0.000000000000000 0.699865080422272
c -0.763725979846460 -1.951490367169117 0.000000000000000
c -1.178021498691448 -1.180099234052219 1.119582353270024
c 0.000000000000000 -0.719862496282275 1.811085596843815
c 0.000000000000000 0.719862496282275 1.811085596843815
c 0.763725979846460 1.951490367169117 0.000000000000000
c 1.178021498691448 1.180099234052219 1.119582353270024
c 0.763725979846460 -1.951490367169117 0.000000000000000
c 1.178021498691448 -1.180099234052219 1.119582353270024
c 1.966567157533329 0.000000000000000 0.699865080422272

c20cage.wfx

