%nprocs=4
%mem=4GB
#p pbepbe aug-cc-pvtz output=wfx scf=(conver=6) int=(grid=ultrafine)

title

0 1
c -1.193452037401739 -0.689039855058800 -0.352394407874196
c -0.753097210014713 -0.434800876927949 -1.787503705684480
c 0.000000000000000 0.869601753855898 -1.787503705684480
c 0.000000000000000 1.378079710117600 -0.352394407874196
c -1.193452037401739 0.689039855058800 0.352394407874196
c 0.000000000000000 -1.378079710117600 0.352394407874196
c 1.193452037401739 -0.689039855058800 -0.352394407874196
c 0.753097210014713 -0.434800876927949 -1.787503705684480
c 0.000000000000000 -0.869601753855898 1.787503705684480
c -0.753097210014713 0.434800876927949 1.787503705684480
c 1.193452037401739 0.689039855058800 0.352394407874196
c 0.753097210014713 0.434800876927949 1.787503705684480
h -2.134225042824168 -1.232195402985772 -0.250184338915337
h -1.326771728502976 -0.766012014604377 -2.644012326135642
h 0.000000000000000 1.532024029208754 -2.644012326135642
h 0.000000000000000 2.464390805971544 -0.250184338915337
h -2.134225042824168 1.232195402985772 0.250184338915337
h 0.000000000000000 -2.464390805971544 0.250184338915337
h 2.134225042824168 -1.232195402985772 -0.250184338915337
h 1.326771728502976 -0.766012014604377 -2.644012326135642
h 0.000000000000000 -1.532024029208754 2.644012326135642
h -1.326771728502976 0.766012014604377 2.644012326135642
h 2.134225042824168 1.232195402985772 0.250184338915337
h 1.326771728502976 0.766012014604377 2.644012326135642

ISO_E35.wfx

