%nprocs=4
%mem=4GB
#p pbepbe aug-cc-pvtz output=wfx scf=(conver=6) int=(grid=ultrafine)

title

0 1
s -2.167085528843502 -0.897636216869448 -0.502672615405887
s -2.167085528843502 0.897636216869448 0.502672615405887
s -0.897636216869448 -2.167085528843502 0.502672615405887
s 0.897636216869448 -2.167085528843502 -0.502672615405887
s 2.167085528843502 -0.897636216869448 0.502672615405887
s 2.167085528843502 0.897636216869448 -0.502672615405887
s 0.897636216869448 2.167085528843502 0.502672615405887
s -0.897636216869448 2.167085528843502 -0.502672615405887

s8.wfx

