%nprocs=6
%mem=2GB
#p b3lyp aug-cc-pvqz output=wfx scf=(conver=6) int=(grid=ultrafine)
 
title
 
0 1
S 0.0000000000 0.0000553560 -0.6565980390
P 0.0000000000 0.0000081730 1.2313460430
F 0.0000000000 1.3572487840 2.0254520610
F -1.1754084870 -0.6786310980 2.0253568780
F 1.1754084870 -0.6786310980 2.0253568780

19_cl-_spf3_1.wfx

