%nprocs=6
%mem=2GB
#p b3lyp aug-cc-pvqz output=wfx scf=(conver=6) int=(grid=ultrafine)
 
title
 
0 1
S 0.0000000000 -0.0000013030 -0.6140869210
P 0.0000000000 -0.0000064540 1.2712716670
F 0.0000000000 1.3576985930 2.0594886850
F -1.1757900500 -0.6788428350 2.0594598580
F 1.1757900500 -0.6788428350 2.0594598580

20_br-_spf3_1.wfx

