%nprocs=6
%mem=2GB
#p b3lyp aug-cc-pvqz output=wfx scf=(conver=6) int=(grid=ultrafine)
 
title
 
0 1
SE 0.0000000000 0.0000016600 -1.0570288900
P 0.0000000000 -0.0000042600 0.9874042300
F 0.0000000000 1.3630456500 1.7403366600
F -1.1804177900 -0.6815119700 1.7403110400
F 1.1804177900 -0.6815119700 1.7403110400

24_h3n_sepf3_1.wfx

