%nprocs=6
%mem=2GB
#p b3lyp aug-cc-pvqz output=wfx scf=(conver=6) int=(grid=ultrafine)
 
title
 
-1 1
Br 2.4621387168 -0.0922842629 0.0000000000
P -0.5063357975 -0.2599702647 0.0000000000
F -0.4506238962 0.7878032316 1.1957531374
F -0.4506238962 0.7878032316 -1.1957531374
F -2.1511651269 -0.2928119355 0.0000000000

26_br-_pf3.wfx

