%nprocs=4
%mem=4GB
#p pbepbe def2qzvp output=wfx scf=(conver=6) int=(grid=ultrafine)

title

1 2
n 0.000000000000000 0.000000000000000 -1.083232099556690
n 0.000000000000000 0.000000000000000 1.083232099556690
h 0.842943863215748 0.486673866339358 -1.358916371566637
h 0.000000000000000 -0.973347732678711 -1.358916371566637
h -0.842943863215748 0.486673866339358 -1.358916371566637
h 0.842943863215748 -0.486673866339358 1.358916371566637
h 0.000000000000000 0.973347732678711 1.358916371566637
h -0.842943863215748 -0.486673866339358 1.358916371566637

nh32+.wfx

