%nprocs=4
%mem=4GB
#p pbepbe aug-cc-pvtz output=wfx scf=(conver=6) int=(grid=ultrafine)

title

0 1
al 0.000000000000000 0.000000000000000 0.000000000000000
cl -1.035485296984791 -1.793513144868209 0.000000000000000
cl -1.035485296984791 1.793513144868209 0.000000000000000
cl 2.070970593969586 0.000000000000000 0.000000000000000

alcl3.wfx

