%nprocs=4
%mem=4GB
#p pbepbe aug-cc-pvtz output=wfx scf=(conver=6) int=(grid=ultrafine)

title

0 1
b 0.000000000000000 0.000000000000000 0.000000000000000
h -0.594949955213038 -1.030483550389813 0.000000000000000
h -0.594949955213038 1.030483550389813 0.000000000000000
h 1.189899910426080 0.000000000000000 0.000000000000000

bh3.wfx

