%nprocs=4
%mem=4GB
#p pbepbe aug-cc-pvtz output=wfx scf=(conver=6) int=(grid=ultrafine)

title

0 1
C 0.039754322000000 -0.020606284000000 -1.707314590000000
H -0.032276711000000 0.011046812000000 -2.789939015000000
H -0.826637179000000 -0.533296965000000 -1.301345967000000
H 0.944658983000000 -0.549439507000000 -1.423219897000000
H 0.069552712000000 0.991693192000000 -1.316575906000000

06chloromethanemethane_2.wfx

