%nprocs=4
%mem=4GB
#p pbepbe aug-cc-pvtz output=wfx scf=(conver=6) int=(grid=ultrafine)

title

0 1
C 0.000023411000000 0.000105759000000 2.053285735000000
F -1.082526715000000 0.625339904000000 1.589816968000000
F 1.082627682000000 0.625237764000000 1.589922249000000
F -0.000023860000000 -1.249820225000000 1.589264753000000
H -0.000041960000000 -0.000280062000000 3.138092074000000
C -0.000010064000000 -0.000082573000000 -1.743091435000000
H -0.000003612000000 0.000105999000000 -2.828619365000000
H -0.885658535000000 -0.511600583000000 -1.379811314000000
H 0.885727513000000 -0.511445556000000 -1.379800941000000
H -0.000101440000000 1.022550877000000 -1.379525404000000

07trifluoromethanemethane.wfx

