%nprocs=4
%mem=4GB
#p pbepbe aug-cc-pvtz output=wfx scf=(conver=6) int=(grid=ultrafine)

title

0 1
C -0.000010064000000 -0.000082573000000 -1.743091435000000
H -0.000003612000000 0.000105999000000 -2.828619365000000
H -0.885658535000000 -0.511600583000000 -1.379811314000000
H 0.885727513000000 -0.511445556000000 -1.379800941000000
H -0.000101440000000 1.022550877000000 -1.379525404000000

07trifluoromethanemethane_2.wfx

