%nprocs=4
%mem=4GB
#p pbepbe aug-cc-pvtz output=wfx scf=(conver=6) int=(grid=ultrafine)

title

0 1
C -0.000028509000000 -0.000461929000000 2.158149022000000
Cl -1.454063734000000 0.838777303000000 1.616235012000000
Cl 1.454144531000000 0.838659727000000 1.616208515000000
Cl -0.000087400000000 -1.679795034000000 1.617802938000000
H 0.000005696000000 0.000267325000000 3.239305949000000
C -0.000023095000000 0.000461919000000 -1.900304972000000
H 0.000024593000000 -0.001407092000000 -2.986061026000000
H -0.885500277000000 -0.510272086000000 -1.535173451000000
H 0.885623343000000 -0.510121803000000 -1.535137023000000
H -0.000093238000000 1.023638315000000 -1.537792773000000

08trichloromethanemethane.wfx

