%nprocs=4
%mem=4GB
#p pbepbe aug-cc-pvtz output=wfx scf=(conver=6) int=(grid=ultrafine)

title

0 1
C -0.000023095000000 0.000461919000000 -1.900304972000000
H 0.000024593000000 -0.001407092000000 -2.986061026000000
H -0.885500277000000 -0.510272086000000 -1.535173451000000
H 0.885623343000000 -0.510121803000000 -1.535137023000000
H -0.000093238000000 1.023638315000000 -1.537792773000000

08trichloromethanemethane_2.wfx

