%nprocs=4
%mem=4GB
#p pbepbe aug-cc-pvtz output=wfx scf=(conver=6) int=(grid=ultrafine)

title

0 1
C 0.250211388000000 -0.141261283000000 2.278305952000000
F 0.055015573000000 -0.060688554000000 0.911538424000000
H 1.189310250000000 0.342978795000000 2.531275149000000
H 0.282891774000000 -1.187166859000000 2.570525524000000
H -0.571443596000000 0.358513497000000 2.783864006000000
C -0.222998033000000 0.125060181000000 -2.031995678000000
F -0.353854222000000 0.228242626000000 -3.405338910000000
H -1.074191041000000 -0.417537604000000 -1.631229882000000
H 0.694086089000000 -0.408170093000000 -1.799115801000000
H -0.187197902000000 1.120793540000000 -1.599918593000000

09fluoromethanedimer.wfx

