%nprocs=4
%mem=4GB
#p pbepbe aug-cc-pvtz output=wfx scf=(conver=6) int=(grid=ultrafine)

title

0 1
C -0.248215463000000 0.147563142000000 -2.354598055000000
CL -0.430872029000000 0.266976908000000 -4.121110990000000
H -1.097215819000000 -0.394125438000000 -1.955018213000000
H 0.671578312000000 -0.381551292000000 -2.136340484000000
H -0.212788793000000 1.148538795000000 -1.941709395000000

10chloromethanedimer_2.wfx

