%nprocs=4
%mem=4GB
#p pbepbe aug-cc-pvtz output=wfx scf=(conver=6) int=(grid=ultrafine)

title

0 1
H -1.982727901000000 -2.229710809000000 3.302751592000000
C -1.175738052000000 -1.515819137000000 3.395968839000000
C 0.127581029000000 -1.959602814000000 3.614622471000000
C -1.438429730000000 -0.150603905000000 3.294462135000000
C 1.167830304000000 -1.039033251000000 3.731969940000000
H 0.331418327000000 -3.018852194000000 3.696210666000000
H -2.449489395000000 0.193673563000000 3.123490546000000
C -0.398879384000000 0.770556176000000 3.412257913000000
C 0.904159726000000 0.325967381000000 3.630272076000000
H 2.179355046000000 -1.382919174000000 3.899512705000000
H -0.602955098000000 1.829871089000000 3.332690746000000
H 1.711481364000000 1.040279331000000 3.720124956000000

11trifluorobenzenezenebenzene_2.wfx

