%nprocs=4
%mem=4GB
#p pbepbe aug-cc-pvtz output=wfx scf=(conver=6) int=(grid=ultrafine)

title

0 1
F -2.268328468000000 -1.958202889000000 -0.323025092000000
F -2.703690585000000 0.725550383000000 -0.253119040000000
C 0.039970416000000 -1.620649062000000 0.000627529000000
C -1.246714568000000 -1.122331457000000 -0.158188956000000
C -1.468960632000000 0.248281616000000 -0.123448223000000
C -0.404843176000000 1.120110725000000 0.068321788000000
C 0.882869160000000 0.622303553000000 0.223239994000000
C 1.104164281000000 -0.748842052000000 0.192245986000000
F -0.620157741000000 2.430732722000000 0.113060107000000
F 1.901232288000000 1.456424170000000 0.399377483000000
F 0.250821528000000 -2.933836485000000 -0.010169125000000
F 2.333223855000000 -1.227390582000000 0.354782679000000
H -1.719265622000000 -1.313070599000000 3.235114680000000
H -2.117120419000000 1.131566386000000 3.250807086000000
C 0.409478083000000 -1.125979890000000 3.476774480000000
C -0.887013607000000 -0.630037228000000 3.342089837000000
C -1.111190459000000 0.746396788000000 3.352790675000000
C -0.039417816000000 1.626442678000000 3.499615551000000
C 1.256371149000000 1.130100736000000 3.634840523000000
C 1.481108571000000 -0.245785431000000 3.623479226000000
H -0.213650130000000 2.693766913000000 3.507370558000000
H 2.087582706000000 1.812593825000000 3.746420458000000
H 0.583630925000000 -2.193775854000000 3.470689289000000
H 2.486380394000000 -0.630785067000000 3.727095469000000

12hexafuorobenzenezenebenzene.wfx

