%nprocs=4
%mem=4GB
#p pbepbe aug-cc-pvtz output=wfx scf=(conver=6) int=(grid=ultrafine)

title

0 1
O 4.855012535000000 0.847915867000000 1.349033039000000
C 5.324414120000000 0.241999249000000 0.411201439000000
H 6.411534668000000 0.146524254000000 0.268747940000000
H 4.686070972000000 -0.241736004000000 -0.342833789000000

14bromomethaneformaldehyde_2.wfx

