%nprocs=4
%mem=4GB
#p pbepbe aug-cc-pvtz output=wfx scf=(conver=6) int=(grid=ultrafine)

title

0 1
C -0.095501280000000 -0.091133031000000 -0.141315705000000
I 1.830395880000000 0.396977839000000 0.615165203000000
H -0.179397714000000 -1.169911689000000 -0.184336422000000
H -0.836289841000000 0.323841164000000 0.530854584000000
H -0.191259588000000 0.340771952000000 -1.129757270000000
O 4.929738023000000 0.840944568000000 1.315419483000000
C 5.505619501000000 0.250421100000000 0.427801344000000
H 6.603732935000000 0.210582669000000 0.377172685000000
H 4.957103893000000 -0.273495438000000 -0.369061306000000

15iodomethaneformaldehyde.wfx

