%nprocs=4
%mem=4GB
#p pbepbe aug-cc-pvtz output=wfx scf=(conver=6) int=(grid=ultrafine)

title

0 1
O 4.929738023000000 0.840944568000000 1.315419483000000
C 5.505619501000000 0.250421100000000 0.427801344000000
H 6.603732935000000 0.210582669000000 0.377172685000000
H 4.957103893000000 -0.273495438000000 -0.369061306000000

15iodomethaneformaldehyde_2.wfx

