%nprocs=4
%mem=4GB
#p pbepbe aug-cc-pvtz output=wfx scf=(conver=6) int=(grid=ultrafine)

title

0 1
C 0.092348417000000 -0.047899443000000 -0.084180609000000
Br 1.850295174000000 0.401756602000000 0.541215366000000
F -0.041248424000000 -1.365231569000000 -0.186834437000000
F -0.830122197000000 0.403465307000000 0.756154716000000
F -0.127685037000000 0.489606579000000 -1.278313038000000
O 4.695578043000000 0.845065122000000 1.191773039000000
C 5.385158396000000 0.226244432000000 0.410437893000000
H 6.482742329000000 0.244130452000000 0.468348711000000
H 4.945821455000000 -0.382680577000000 -0.393692603000000

17trifluorobromomethaneformaldehyde.wfx

