%nprocs=4
%mem=4GB
#p pbepbe aug-cc-pvtz output=wfx scf=(conver=6) int=(grid=ultrafine)

title

0 1
C -0.082218020000000 -0.061558741000000 -0.106808480000000
I 1.901225752000000 0.399212623000000 0.532188762000000
F -0.250022308000000 -1.377895721000000 -0.214057562000000
F -0.977880861000000 0.400686285000000 0.761715653000000
F -0.335197352000000 0.485382328000000 -1.293788995000000
O 4.809254249000000 0.837030654000000 1.169461550000000
C 5.556540758000000 0.235129869000000 0.427979466000000
H 6.648084457000000 0.296357069000000 0.536692940000000
H 5.177061701000000 -0.398984543000000 -0.386517855000000

18trifluoroiodomethaneformaldehyde.wfx

