%nprocs=4
%mem=4GB
#p pbepbe aug-cc-pvtz output=wfx scf=(conver=6) int=(grid=ultrafine)

title

0 1
O -3.785037609000000 0.000866982000000 -3.641619578000000
C -4.942504639000000 0.030472744000000 -3.262526217000000
C -5.268278522000000 0.030763181000000 -1.784860352000000
C -6.074813789000000 0.067570401000000 -4.266102134000000
H -6.334373655000000 0.058880289000000 -1.583055978000000
H -4.834292873000000 -0.858956293000000 -1.331613097000000
H -4.786131398000000 0.889881839000000 -1.321375004000000
H -5.949425709000000 0.944115224000000 -4.899332013000000
H -5.998004094000000 -0.807301293000000 -4.909325767000000
H -7.056301133000000 0.092128453000000 -3.803511947000000

20bromobenzenezeneacetone_2.wfx

