%nprocs=4
%mem=4GB
#p pbepbe aug-cc-pvtz output=wfx scf=(conver=6) int=(grid=ultrafine)

title

0 1
C -0.436019870000000 -0.000001503000000 1.035407288000000
C 0.589762206000000 -0.000013214000000 1.978500062000000
C 1.922247312000000 -0.000006201000000 1.571695588000000
C 2.228266034000000 -0.000021972000000 0.212569121000000
C 1.211087138000000 -0.000006405000000 -0.740153580000000
H -1.469242030000000 -0.000001950000000 1.352224613000000
H 0.343101091000000 -0.000008425000000 3.031629685000000
H 2.714694228000000 0.000011502000000 2.307032918000000
H 3.260261396000000 -0.000026554000000 -0.111551520000000
H 1.450707808000000 -0.000010108000000 -1.793985522000000
C -0.120402824000000 0.000022122000000 -0.323575940000000
I -1.658224104000000 0.000221203000000 -1.738019970000000
O -3.949939923000000 -0.000143450000000 -3.815896908000000
C -3.800618306000000 0.003771500000000 -5.025811592000000
C -2.413746868000000 0.013928662000000 -5.628840849000000
C -5.004091973000000 -0.001515653000000 -5.942215119000000
H -1.881038094000000 0.891330448000000 -5.265472224000000
H -1.870078249000000 -0.858483324000000 -5.269712302000000
H -2.420677721000000 0.016520534000000 -6.714123140000000
H -5.616269855000000 0.870128273000000 -5.717411468000000
H -5.605371398000000 -0.881767955000000 -5.721583165000000
H -4.740047227000000 0.002639189000000 -6.994882525000000

21iodobenzenezeneacetone.wfx

