%nprocs=4
%mem=4GB
#p pbepbe aug-cc-pvtz output=wfx scf=(conver=6) int=(grid=ultrafine)

title

0 1
N -4.403627858000000 0.003356033000000 3.894349635000000
C -5.231717639000000 -1.074213794000000 3.388785172000000
C -4.114028146000000 -0.203131337000000 5.300014813000000
C -5.064999881000000 1.279020449000000 3.699967776000000
H -6.201675997000000 -1.135411517000000 3.908711233000000
H -5.421511216000000 -0.924313435000000 2.327182075000000
H -4.715155972000000 -2.024330412000000 3.514793112000000
H -5.027240949000000 -0.220059996000000 5.916981022000000
H -3.593998232000000 -1.150520809000000 5.432395658000000
H -3.470363412000000 0.596298264000000 5.663509601000000
H -6.026502925000000 1.337441715000000 4.235674271000000
H -4.424188201000000 2.083132450000000 4.058008348000000
H -5.254102781000000 1.436696713000000 2.639380767000000

22chlorobenzenezenetrimethylamine_2.wfx

