%nprocs=4
%mem=4GB
#p pbepbe aug-cc-pvtz output=wfx scf=(conver=6) int=(grid=ultrafine)

title

0 1
C -0.235164025000000 0.002086093000000 0.132755180000000
C -0.238177601000000 0.001189285000000 1.525603690000000
C 0.955845752000000 -0.002137887000000 2.242723198000000
C 2.165456711000000 -0.004625136000000 1.552251769000000
C 2.182877035000000 -0.003791485000000 0.158976860000000
C 0.981045016000000 -0.000426079000000 -0.546038572000000
Cl -1.748955125000000 0.004260493000000 2.378483547000000
H 0.930822557000000 -0.002763332000000 3.322933540000000
H 3.093652555000000 -0.007217456000000 2.107162249000000
H 3.124112655000000 -0.005745788000000 -0.372313104000000
H 0.985592531000000 0.000253534000000 -1.627466794000000
H -1.172880264000000 0.004699747000000 -0.404018294000000
N -4.403627858000000 0.003356033000000 3.894349635000000
C -5.231717639000000 -1.074213794000000 3.388785172000000
C -4.114028146000000 -0.203131337000000 5.300014813000000
C -5.064999881000000 1.279020449000000 3.699967776000000
H -5.027240949000000 -0.220059996000000 5.916981022000000
H -3.593998232000000 -1.150520809000000 5.432395658000000
H -3.470363412000000 0.596298264000000 5.663509601000000
H -6.026502925000000 1.337441715000000 4.235674271000000
H -4.424188201000000 2.083132450000000 4.058008348000000
H -5.254102781000000 1.436696713000000 2.639380767000000
H -6.201675997000000 -1.135411517000000 3.908711233000000
H -5.421511216000000 -0.924313435000000 2.327182075000000
H -4.715155972000000 -2.024330412000000 3.514793112000000

22chlorobenzenezenetrimethylamine.wfx

