%nprocs=4
%mem=4GB
#p pbepbe aug-cc-pvtz output=wfx scf=(conver=6) int=(grid=ultrafine)

title

0 1
C -0.223913000000000 0.002109000000000 0.127404000000000
C -0.229554000000000 0.001265000000000 1.520572000000000
C 0.992179000000000 -0.000449000000000 -0.552274000000000
H -1.159029000000000 0.004715000000000 -0.414303000000000
C 0.966066000000000 -0.002100000000000 2.235729000000000
BR -1.869237000000000 0.004669000000000 2.446186000000000
C 2.194095000000000 -0.003818000000000 0.152623000000000
H 0.996880000000000 0.000205000000000 -1.633817000000000
C 2.176417000000000 -0.004636000000000 1.545888000000000
H 0.946534000000000 -0.002734000000000 3.316252000000000
H 3.135463000000000 -0.005789000000000 -0.378706000000000
H 3.104760000000000 -0.007248000000000 2.100804000000000

23bromobenzenezenetrimethylamine_1.wfx

