%nprocs=4
%mem=4GB
#p pbepbe aug-cc-pvtz output=wfx scf=(conver=6) int=(grid=ultrafine)

title

0 1
S -4.157443472000000 5.729584377000000 -0.878761129000000
H -4.823791426000000 4.796089466000000 -1.563433338000000
C -2.828338520000000 5.970593053000000 -2.091189515000000
H -2.167577293000000 6.722356639000000 -1.668621815000000
H -2.264954814000000 5.054835899000000 -2.240198499000000
H -3.218524904000000 6.337447714000000 -3.035087058000000

25bromobenzenezenemethanethiol_2.wfx

