%nprocs=4
%mem=4GB
#p pbepbe aug-cc-pvtz output=wfx scf=(conver=6) int=(grid=ultrafine)

title

0 1
S -3.112683203000000 6.289227834000000 1.226984439000000
H -4.328789697000000 5.797771251000000 0.973373089000000
C -2.689135032000000 6.703163830000000 -0.489062886000000
H -1.684433029000000 7.115457372000000 -0.460265708000000
H -2.683867206000000 5.816530502000000 -1.115183775000000
H -3.365330613000000 7.451201412000000 -0.890098894000000

26iodobenzenezenemethanethiol_2.wfx

