%nprocs=4
%mem=4GB
#p pbepbe aug-cc-pvtz output=wfx scf=(conver=6) int=(grid=ultrafine)

title

0 1
BR -0.037667189000000 -3.295073415000000 1.773239996000000
C 0.090914423000000 -5.222622362000000 1.868971791000000
H 0.022220220000000 -5.618700696000000 0.863215296000000
H 1.044380918000000 -5.477357114000000 2.315266587000000
H -0.725846390000000 -5.587601469000000 2.479578125000000

27bromomethanebenzene_2.wfx

