%nprocs=4
%mem=4GB
#p pbepbe aug-cc-pvtz output=wfx scf=(conver=6) int=(grid=ultrafine)

title

0 1
I -0.205324409000000 -3.368518313000000 1.883768735000000
C 0.069196850000000 -5.471929013000000 1.872749216000000
H 0.073601070000000 -5.805636321000000 0.839825880000000
H 1.018048659000000 -5.689860688000000 2.352917164000000
H -0.752874404000000 -5.922024645000000 2.420412903000000

28iodomethanebenzene_2.wfx

