%nprocs=4
%mem=4GB
#p pbepbe aug-cc-pvtz output=wfx scf=(conver=6) int=(grid=ultrafine)

title

0 1
I 0.003414377000000 -3.215655817000000 1.728462810000000
C 0.106167253000000 -5.333396952000000 1.850723289000000
F 0.135277584000000 -5.877100968000000 0.636074544000000
F 1.202218878000000 -5.716996848000000 2.501577262000000
F -0.950096543000000 -5.821924316000000 2.496892131000000

30trifluoroiodomethanebenzene_2.wfx

