%nprocs=4
%mem=4GB
#p pbepbe aug-cc-pvtz output=wfx scf=(conver=6) int=(grid=ultrafine)

title

0 1
O -0.822589646000000 0.130751992000000 -0.004670180000000
H 0.151322978000000 0.236946671000000 -0.005208468000000
C -1.094495060000000 -1.171586630000000 -0.000235811000000
F -2.408360005000000 -1.348046797000000 0.002362133000000
F -0.590968467000000 -1.812045684000000 -1.074390844000000
F -0.587525050000000 -1.805322781000000 1.076316471000000
O 1.902892753000000 0.321317956000000 -0.005888900000000
H 2.357570941000000 -0.049824215000000 -0.765819097000000
H 2.357578038000000 -0.050794037000000 0.753566975000000

31trifluoromethanolwater.wfx

