%nprocs=4
%mem=4GB
#p pbepbe aug-cc-pvtz output=wfx scf=(conver=6) int=(grid=ultrafine)

title

0 1
O -0.778073626000000 0.205937567000000 -0.003744167000000
H 0.204621770000000 0.306150037000000 -0.005250247000000
C -1.064673043000000 -1.099865265000000 -0.000037626000000
Cl -2.818149715000000 -1.288073131000000 0.002340120000000
Cl -0.388554792000000 -1.946140752000000 -1.447422763000000
Cl -0.385461107000000 -1.938612521000000 1.450299192000000
O 1.949794791000000 0.377735879000000 -0.007230776000000
H 2.320041419000000 -0.082316123000000 -0.765476382000000
H 2.321048106000000 -0.079135932000000 0.752486550000000

32trichloromethanolwater.wfx

