%nprocs=4
%mem=4GB
#p pbepbe aug-cc-pvtz output=wfx scf=(conver=6) int=(grid=ultrafine)

title

0 1
O -0.167235591000000 0.000145557000000 2.943064329000000
H -1.010969151000000 -0.000039884000000 3.399033154000000
C 0.881995330000000 0.000018821000000 3.906791538000000
H 1.813385323000000 0.000059838000000 3.351066264000000
H 0.849525704000000 0.889168810000000 4.534616489000000
H 0.849495114000000 -0.889261044000000 4.534430809000000

33HFmethanol_2.wfx

