%nprocs=4
%mem=4GB
#p pbepbe aug-cc-pvtz output=wfx scf=(conver=6) int=(grid=ultrafine)

title

0 1
Cl 0.377733920000000 -0.000000483000000 0.006430557000000
H 0.049409273000000 -0.000001882000000 1.255616511000000
O -0.222171001000000 0.000007107000000 3.082519813000000
H -1.034384448000000 -0.000005361000000 3.593737797000000
C 0.882609855000000 0.000001116000000 3.981271022000000
H 1.779241003000000 -0.000000402000000 3.370105894000000
H 0.890969395000000 0.888981441000000 4.610910354000000
H 0.890965051000000 -0.888981553000000 4.610907087000000

34HClmethanol.wfx

