%nprocs=4
%mem=4GB
#p pbepbe aug-cc-pvtz output=wfx scf=(conver=6) int=(grid=ultrafine)

title

0 1
I 0.494360760000000 0.000136728000000 -0.299186147000000
H -0.026818451000000 0.000009824000000 1.227779722000000
O -0.304026274000000 -0.000209906000000 3.240541651000000
H -1.061671708000000 0.000034129000000 3.830196635000000
C 0.877605168000000 -0.000029640000000 4.033497508000000
H 1.715615561000000 -0.000131053000000 3.343283509000000
H 0.946841112000000 0.888893429000000 4.660263367000000
H 0.946888093000000 -0.888723395000000 4.660583580000000

36HImethanol.wfx

