%nprocs=4
%mem=4GB
#p pbepbe aug-cc-pvtz output=wfx scf=(conver=6) int=(grid=ultrafine)

title

0 1
Cl -0.107209379000000 -0.167310542000000 -0.020023104000000
H 0.009530218000000 0.008128887000000 1.304817825000000
N 0.065505431000000 0.069212229000000 2.980516721000000
H 1.017174917000000 0.090660584000000 3.323272637000000
C -0.621666375000000 -1.143104238000000 3.441045492000000
H -1.635399136000000 -1.140501949000000 3.050017598000000
H -0.113160069000000 -2.010960360000000 3.030175196000000
H -0.663681534000000 -1.241291225000000 4.525847684000000
H -0.392131755000000 0.896265391000000 3.341308529000000

38HClmethylamine.wfx

