%nprocs=4
%mem=4GB
#p pbepbe aug-cc-pvtz output=wfx scf=(conver=6) int=(grid=ultrafine)

title

0 1
CL 1.534755700000000 -0.000000278000000 -3.014973713000000
C -0.250343184000000 0.000011724000000 -3.026056648000000
H -0.580143384000000 0.000018132000000 -4.057685667000000
H -0.592367277000000 -0.887056056000000 -2.508114642000000
H -0.592357482000000 0.887077343000000 -2.508105102000000

40methanolchloromethane_2.wfx

