%nprocs=4
%mem=2GB
#P pbepbe aug-cc-pvtz SCF=(Conver=6) Int=(grid=ultrafine) output=wfx
 
title
 
0 1
C 2.779601828 1.063885684 0.134357240
O 2.195180065 0.089865248 -0.345373726
N 2.135514264 2.148628907 0.602203794
H 1.115408896 2.193066691 0.567902477
H 2.653538330 2.916590107 0.982324444
C 4.286601010 1.088170064 0.219582325
H 4.678472074 1.987819580 0.686766335
H 4.690157204 1.000625027 -0.786197984
H 4.614379772 0.217595160 0.781762663
 
AcNH2AcNH2-2.wfx
 
