%nprocs=4
%mem=2GB
#P pbepbe aug-cc-pvtz SCF=(Conver=6) Int=(grid=ultrafine) output=wfx
 
title
 
0 1
O -0.786562022 0.045168441 -0.007189119
H 0.177706774 0.012695896 -0.006835389
C -1.247990941 -1.290283536 0.001083621
H -2.334277443 -1.258897100 0.000221200
H -0.925965746 -1.849768096 -0.880445382
H -0.927027831 -1.838462882 0.890076520
 
MeOHWater-1.wfx
 
