%nprocs=4
%mem=2GB
#P pbepbe aug-cc-pvtz SCF=(Conver=6) Int=(grid=ultrafine) output=wfx
 
title
 
0 1
O 2.210419277 -0.122121771 -0.012102701
H 2.679208587 0.492262753 -0.581768655
C 2.719253203 0.034897167 1.309614623
H 2.165684123 -0.653299260 1.939745503
H 3.778249305 -0.215541732 1.366337764
H 2.566813565 1.045591220 1.687507169
 
MeOHMeOH-2.wfx
 
