24
1_COMPLEX.log	Energy: -291441.8633146
C          0.41055        1.77147        1.39904
H          1.13262        1.70848        2.20839
C          0.82521        1.66110        0.07147
H          1.87708        1.49588       -0.15085
C         -0.10939        1.73504       -0.95873
H          0.21435        1.64016       -1.98631
C         -1.46057        1.92600       -0.67068
H         -2.17917        2.00370       -1.48252
C         -1.88448        2.01678        0.65802
H         -2.93670        2.15421        0.89003
C         -0.94519        1.94064        1.68832
H         -1.27523        2.01880        2.72148
C          0.98382       -1.83632        0.95772
H          1.33256       -1.81730        1.97959
C          1.88663       -1.98720       -0.09760
H          2.94754       -2.10894        0.10758
C          1.43297       -1.99513       -1.41702
H          2.14207       -2.11317       -2.23198
C          0.07034       -1.84801       -1.68962
H         -0.28851       -1.84362       -2.71462
C         -0.83198       -1.69982       -0.63164
H         -1.88378       -1.56581       -0.83464
C         -0.37772       -1.69756        0.68438
H         -1.08302       -1.55936        1.50018
