%MEM=12GB
%nprocs=6
#p pbepbe aug-cc-pvtz Int(Grid=UltraFine) units=au output=wfx

1_MONOMER 

0 1
C         2.284339195     1.318863849     0.000000000 
H         4.062541063     2.345509176     0.000000000 
C         2.284339195    -1.318863849     0.000000000 
H         4.062541063    -2.345509176     0.000000000 
C         0.000000000    -2.637727698     0.000000000 
H         0.000000000    -4.691018352     0.000000000 
C        -2.284339195    -1.318863849     0.000000000 
H        -4.062541063    -2.345509176     0.000000000 
C        -2.284339195     1.318863849     0.000000000 
H        -4.062541063     2.345509176     0.000000000 
C         0.000000000     2.637727698     0.000000000 
H         0.000000000     4.691018352     0.000000000 

1_MONOMER.wfx

