%MEM=12GB
%nprocs=6
#p pbepbe aug-cc-pvtz Int(Grid=UltraFine) units=au output=wfx

2_COMPLEX1 

0 1
C        -0.273927671     6.188182871    -1.193234417 
C        -2.463448197     5.778251101    -2.604496685 
C        -4.694068052     5.397050101    -1.252350450 
C        -4.718964683     5.339374110     1.403796635 
C        -2.513256130     5.656383831     2.812293441 
C        -0.297862432     6.126490453     1.461282084 
C        -7.423696700     4.946641291    -2.114379377 
C        -8.010204882     2.219327521    -1.351812152 
C        -8.037253583     2.163883167     1.307302993 
C        -7.464899921     4.856014409     2.194336617 
C        -8.212785047     0.018100987    -2.784483004 
C        -8.416513633    -2.243087688    -1.447180029 
C        -8.446566965    -2.297884480     1.209448828 
C        -8.271094420    -0.094241673     2.643301772 
C        -8.829681399     6.360299047     0.057394180 
C         2.390273783     6.993216546    -1.978484267 
C         2.352358123     6.890526530     2.330494015 
C         4.241478487     4.875802844     1.471321783 
C         4.265090973     4.939570975    -1.183710648 
C         5.912946671     3.355128676     2.830239983 
C         7.668512690     1.971636711     1.430964686 
C         7.692688326     2.036309581    -1.223327597 
C         5.961355894     3.486266106    -2.584832948 
C         2.912135508     8.901276568     0.227485205 
C         9.879554354     0.342019310    -2.076068548 
C         9.161212961    -2.355196966    -1.321899889 
C         9.135476541    -2.420670799     1.339127197 
C         9.839279502     0.235539548     2.239140745 
C         8.550036327    -4.479116643    -2.729604556 
C         7.900743968    -6.700582973    -1.428015596 
C         7.874182776    -6.765238006     1.206571910 
C         8.497020199    -4.610775092     2.628311332 
C        11.772848046     0.925966757     0.115070858 
C        -8.317653199    -5.082647528     1.980959821 
C        -5.665785053    -5.913208247     1.169153945 
C        -5.634248634    -5.858266810    -1.489901533 
C        -8.266960471    -4.993841756    -2.329301732 
C        -3.499269775    -6.479561456     2.527808205 
C        -1.274907552    -7.030902644     1.184783682 
C        -1.243506756    -6.976514689    -1.446791474 
C        -3.435415772    -6.369014471    -2.818559257 
C        -9.876690669    -6.270719940    -0.218202261 
H        -2.452932503     5.841707847    -4.658281112 
H        -2.540304761     5.627464278     4.866743029 
H        -7.860214764     5.467274567    -4.058960440 
H        -7.937931320     5.295407842     4.150392399 
H        -8.117731510     0.056953260    -4.836063665 
H        -8.218923151    -0.140409994     4.696173586 
H        -8.405206835     8.383360354     0.103798122 
H       -10.871399501     6.032491224     0.031101716 
H         2.585753156     7.686468463    -3.909690911 
H         2.514280156     7.490547228     4.295709522 
H         5.920361903     3.325427551     4.884595614 
H         6.005398131     3.556720825    -4.637685372 
H         1.578087810    10.481672098     0.253576607 
H         4.867282288     9.575634197     0.260704153 
H        10.524627182     0.601978494    -4.014712520 
H        10.448341154     0.398685058     4.199879277 
H         8.553178243    -4.432678185    -4.782365467 
H         7.422152946    -8.391555840    -2.489827766 
H         7.375119788    -8.505996695     2.174210004 
H         8.460016325    -4.665425802     4.680636988 
H        12.345031180     2.911993383     0.169592659 
H        13.422575295    -0.321260724     0.099560259 
H        -8.865907845    -5.528438846     3.916064861 
H        -8.769018965    -5.359791471    -4.293497303 
H        -3.505748534    -6.499811074     4.582156792 
H         0.444994287    -7.489054298     2.208424779 
H         0.500768067    -7.392379946    -2.446836861 
H        -3.392551613    -6.304183844    -4.871586052 
H       -11.845620105    -5.640758693    -0.228492123 
H        -9.760506889    -8.334731276    -0.259256894 
C         0.452250236    -0.845805279    -2.675388408 
C         2.678386501    -1.538428751    -1.286681310 
C         2.650681436    -1.594456638     1.274250791 
C         0.394592126    -0.964583430     2.644504976 
C        -1.863129067    -0.393681948     1.253254109 
C        -1.835024334    -0.336334332    -1.308772363 
C         0.511808125    -0.677215490    -5.305847216 
C         2.774023614    -1.116803896    -6.678341185 
N         4.657920501    -1.465170541    -7.761977704 
C        -1.678319517    -0.017794652    -6.706014273 
N        -3.498752368     0.529049763    -7.815669224 
C         0.398356823    -0.915842857     5.280483283 
C         2.632107925    -1.417633332     6.677932883 
N         4.494657398    -1.816604586     7.780803916 
C        -1.822461154    -0.325471432     6.662979609 
N        -3.667742086     0.165863755     7.757461159 
H         4.381531490    -2.034746813    -2.304889919 
H         4.331758449    -2.135180216     2.306215456 
H        -3.592881061     0.004128697     2.267772849 
H        -3.542268187     0.107614820    -2.342094809 

2_COMPLEX1.wfx

