%MEM=12GB
%nprocs=6
#p pbepbe aug-cc-pvtz Int(Grid=UltraFine) units=au output=wfx

2_HOST 

0 1
C         1.328064309    -2.242081009     6.348430553 
C         2.708447629     0.000000000     6.317292743 
C         1.328064309     2.242081009     6.348430553 
C        -1.328064309     2.242081009     6.348430553 
C        -2.708447629     0.000000000     6.317292743 
C        -1.328064309    -2.242081009     6.348430553 
C         2.152530095     5.014243022     6.353081046 
C         1.328345393     6.107763890     3.805937745 
C        -1.328345393     6.107763890     3.805937745 
C        -2.152530095     5.014243022     6.353081046 
C         2.708518584     6.960442019     1.732751722 
C         1.327953092     7.870357381    -0.316894689 
C        -1.327953092     7.870357381    -0.316894689 
C        -2.708518584     6.960442019     1.732751722 
C         0.000000000     6.124026935     8.040312038 
C         2.152530095    -5.014243022     6.353081046 
C        -2.152530095    -5.014243022     6.353081046 
C        -1.328345393    -6.107763890     3.805937745 
C         1.328345393    -6.107763890     3.805937745 
C        -2.708518584    -6.960442019     1.732751722 
C        -1.327953092    -7.870357381    -0.316894689 
C         1.327953092    -7.870357381    -0.316894689 
C         2.708518584    -6.960442019     1.732751722 
C         0.000000000    -6.124026935     8.040312038 
C         2.154778861    -8.936266569    -2.874816731 
C         1.329612754    -6.990430117    -4.846457103 
C        -1.329612754    -6.990430117    -4.846457103 
C        -2.154778861    -8.936266569    -2.874816731 
C         2.674704955    -5.374411615    -6.405033303 
C         1.316772879    -3.751533607    -8.005428455 
C        -1.316772879    -3.751533607    -8.005428455 
C        -2.674704955    -5.374411615    -6.405033303 
C         0.000000000   -10.915445457    -3.263366223 
C        -2.154778861     8.936266569    -2.874816731 
C        -1.329612754     6.990430117    -4.846457103 
C         1.329612754     6.990430117    -4.846457103 
C         2.154778861     8.936266569    -2.874816731 
C        -2.674704955     5.374411615    -6.405033303 
C        -1.316772879     3.751533607    -8.005428455 
C         1.316772879     3.751533607    -8.005428455 
C         2.674704955     5.374411615    -6.405033303 
C         0.000000000    10.915445457    -3.263366223 
H         4.764011182     0.000000000     6.312538507 
H        -4.764011182     0.000000000     6.312538507 
H         4.102020210     5.382853938     6.913320804 
H        -4.102020210     5.382853938     6.913320804 
H         4.763994066     6.951711371     1.728675006 
H        -4.763994066     6.951711371     1.728675006 
H         0.000000000     5.343170692     9.955787846 
H         0.000000000     8.192209317     8.081926264 
H         4.102020210    -5.382853938     6.913320804 
H        -4.102020210    -5.382853938     6.913320804 
H        -4.763994066    -6.951711371     1.728675006 
H         4.763994066    -6.951711371     1.728675006 
H         0.000000000    -5.343170692     9.955787846 
H         0.000000000    -8.192209317     8.081926264 
H         4.103879335    -9.595051713    -3.001917773 
H        -4.103879335    -9.595051713    -3.001917773 
H         4.729148062    -5.358461414    -6.408610263 
H         2.331989393    -2.481279730    -9.257592565 
H        -2.331989393    -2.481279730    -9.257592565 
H        -4.729148062    -5.358461414    -6.408610263 
H         0.000000000   -12.391106616    -1.814518605 
H         0.000000000   -11.739113868    -5.160864559 
H        -4.103879335     9.595051713    -3.001917773 
H         4.103879335     9.595051713    -3.001917773 
H        -4.729148062     5.358461414    -6.408610263 
H        -2.331989393     2.481279730    -9.257592565 
H         2.331989393     2.481279730    -9.257592565 
H         4.729148062     5.358461414    -6.408610263 
H         0.000000000    12.391106616    -1.814518605 
H         0.000000000    11.739113868    -5.160864559 

2_HOST.wfx

