72
2_HOST.log	Energy: -1015482.8540446
C          0.70278        1.18646       -3.30920
C          1.43325        0.00000       -3.29273
C          0.70278       -1.18646       -3.30920
C         -0.70278       -1.18646       -3.30920
C         -1.43325        0.00000       -3.29273
C         -0.70278        1.18646       -3.30920
C          1.13907       -2.65342       -3.31166
C          0.70293       -3.23209       -1.96377
C         -0.70293       -3.23209       -1.96377
C         -1.13907       -2.65342       -3.31166
C          1.43329       -3.68331       -0.86669
C          0.70272       -4.16481        0.21793
C         -0.70272       -4.16481        0.21793
C         -1.43329       -3.68331       -0.86669
C          0.00000       -3.24070       -4.20451
C          1.13907        2.65342       -3.31166
C         -1.13907        2.65342       -3.31166
C         -0.70293        3.23209       -1.96377
C          0.70293        3.23209       -1.96377
C         -1.43329        3.68331       -0.86669
C         -0.70272        4.16481        0.21793
C          0.70272        4.16481        0.21793
C          1.43329        3.68331       -0.86669
C          0.00000        3.24070       -4.20451
C          1.14026        4.72887        1.57153
C          0.70360        3.69918        2.61488
C         -0.70360        3.69918        2.61488
C         -1.14026        4.72887        1.57153
C          1.41539        2.84402        3.43964
C          0.69681        1.98523        4.28653
C         -0.69681        1.98523        4.28653
C         -1.41539        2.84402        3.43964
C          0.00000        5.77621        1.77714
C         -1.14026       -4.72887        1.57153
C         -0.70360       -3.69918        2.61488
C          0.70360       -3.69918        2.61488
C          1.14026       -4.72887        1.57153
C         -1.41539       -2.84402        3.43964
C         -0.69681       -1.98523        4.28653
C          0.69681       -1.98523        4.28653
C          1.41539       -2.84402        3.43964
C          0.00000       -5.77621        1.77714
H          2.52101        0.00000       -3.29021
H         -2.52101        0.00000       -3.29021
H          2.17070       -2.84848       -3.60813
H         -2.17070       -2.84848       -3.60813
H          2.52100       -3.67869       -0.86453
H         -2.52100       -3.67869       -0.86453
H          0.00000       -2.82748       -5.21814
H          0.00000       -4.33513       -4.22653
H          2.17070        2.84848       -3.60813
H         -2.17070        2.84848       -3.60813
H         -2.52100        3.67869       -0.86453
H          2.52100        3.67869       -0.86453
H          0.00000        2.82748       -5.21814
H          0.00000        4.33513       -4.22653
H          2.17168        5.07748        1.63879
H         -2.17168        5.07748        1.63879
H          2.50256        2.83558        3.44153
H          1.23404        1.31304        4.94915
H         -1.23404        1.31304        4.94915
H         -2.50256        2.83558        3.44153
H          0.00000        6.55709        1.01044
H          0.00000        6.21207        2.78125
H         -2.17168       -5.07748        1.63879
H          2.17168       -5.07748        1.63879
H         -2.50256       -2.83558        3.44153
H         -1.23404       -1.31304        4.94915
H          1.23404       -1.31304        4.94915
H          2.50256       -2.83558        3.44153
H          0.00000       -6.55709        1.01044
H          0.00000       -6.21207        2.78125
