14
2_MONOMER2.log	Energy: -261515.1927473
C          0.00000        1.39478        0.00000
C          1.21809        0.69352        0.00000
C          1.21809       -0.69352        0.00000
C          0.00000       -1.39478        0.00000
C         -1.21809       -0.69352        0.00000
C         -1.21809        0.69352        0.00000
C          0.00000        2.82355        0.00000
C          0.00000       -2.82355        0.00000
H          2.15298        1.24315        0.00000
H          2.15298       -1.24315        0.00000
H         -2.15298       -1.24315        0.00000
H         -2.15298        1.24315        0.00000
N          0.00000        3.98594        0.00000
N          0.00000       -3.98594        0.00000
