%MEM=12GB
%nprocs=6
#p pbepbe aug-cc-pvtz Int(Grid=UltraFine) units=au output=wfx

2_MONOMER2 

0 1
C         0.000000000     2.635746741     0.000000000 
C         2.301865309     1.310563227     0.000000000 
C         2.301865309    -1.310563227     0.000000000 
C         0.000000000    -2.635746741     0.000000000 
C        -2.301865309    -1.310563227     0.000000000 
C        -2.301865309     1.310563227     0.000000000 
C         0.000000000     5.335728638     0.000000000 
C         0.000000000    -5.335728638     0.000000000 
H         4.068543219     2.349205941     0.000000000 
H         4.068543219    -2.349205941     0.000000000 
H        -4.068543219    -2.349205941     0.000000000 
H        -4.068543219     2.349205941     0.000000000 
N         0.000000000     7.532325540     0.000000000 
N         0.000000000    -7.532325540     0.000000000 

2_MONOMER2.wfx

