20
2_MONOMER1.log	Energy: -425852.6104233
C          0.00000        1.41618        0.00000
C          1.23615        0.67926        0.00000
C          1.23615       -0.67926        0.00000
C          0.00000       -1.41618        0.00000
C         -1.23615       -0.67926        0.00000
C         -1.23615        0.67926        0.00000
C          0.00000        2.81257        0.00000
C          1.21090        3.55478        0.00000
N          2.21145        4.15024        0.00000
C         -1.21090        3.55478        0.00000
N         -2.21145        4.15024        0.00000
C          0.00000       -2.81257        0.00000
C          1.21090       -3.55478        0.00000
N          2.21145       -4.15024        0.00000
C         -1.21090       -3.55478        0.00000
N         -2.21145       -4.15024        0.00000
H          2.17174        1.23008        0.00000
H          2.17174       -1.23008        0.00000
H         -2.17174       -1.23008        0.00000
H         -2.17174        1.23008        0.00000
