%MEM=12GB
%nprocs=6
#p pbepbe aug-cc-pvtz Int(Grid=UltraFine) units=au output=wfx

3_COMPLEX1 

0 1
O         1.838855356     7.614725147     0.041062709 
O         9.879778310     8.122830502     1.043371392 
O        10.309870428     5.455811007    -2.836504543 
H        10.686488166     6.478841501    -1.245609637 
O         3.081787987     2.641152332    -7.211550011 
H         1.212782165     2.433759123    -6.862160629 
O        -1.614273632     2.140690947    -5.713979491 
O        -6.868873771     5.703296932     0.715145906 
O         1.780184987    -7.794343315    -0.022014225 
O         9.878611610    -7.791588167    -0.363505035 
O         9.826058129    -5.214593993     3.603256526 
H        10.391756539    -6.212203730     2.054901960 
O         2.085717679    -2.705413245     7.239527529 
H         0.252874170    -2.595484744     6.704662078 
O        -2.482131822    -2.478469353     5.315622005 
O        -6.906573455    -6.372768529    -1.531733807 
N        -8.602681969     2.068278711    -1.883969864 
H        -8.580518073     3.606098775    -0.625224509 
N        -9.007333535    -2.725579314     0.739716311 
H        -8.791178899    -4.281457089    -0.480731779 
C         3.672551877     6.482840169    -1.519640780 
C         6.285524222     6.694679527    -1.139617101 
C         7.789728793     5.418863236    -3.025391775 
C         6.741419149     4.095890772    -5.077804752 
C         4.100771120     3.947995993    -5.284465158 
C         2.564588835     5.147916943    -3.467833169 
C        -0.238316136     5.720640082    -3.414493902 
C        -2.130934060     3.604920956    -3.927388246 
C        -4.450329198     3.622791858    -2.510418416 
C        -4.805743701     5.485875466    -0.460908596 
C        -2.653448465     6.950149726     0.453221617 
H        -2.851253029     7.875771898     2.269678250 
C        -0.474709581     6.841200006    -0.837707903 
C         7.522033315     8.107878707     0.877308084 
C         6.017457377     9.603399184     2.781832395 
H         7.330906084    10.472686960     4.110254377 
H         4.686967736     8.389889034     3.793448467 
H         4.893938049    11.061078041     1.836193063 
C         8.442455405     2.886020377    -7.008904296 
H        10.139012351     2.121002219    -6.114769623 
H         9.075202422     4.281672605    -8.405317242 
H         7.442198476     1.392501909    -8.020579013 
C        -0.855823097     7.810353113    -5.430324266 
H        -2.833404179     8.388740522    -5.271393349 
H        -0.505088098     7.040650929    -7.313983137 
H         0.367896221     9.444411160    -5.121092206 
C        -6.392423919     1.810819346    -3.055300938 
C        -5.980029115    -0.336575407    -4.853354450 
H        -7.551416338    -1.664132196    -4.844834088 
H        -4.250967945    -1.342364177    -4.351126267 
H        -5.683367002     0.387781104    -6.765566292 
C       -10.869452128     0.517609119    -2.037837668 
H       -10.711076021    -0.778980427    -3.637054995 
C       -13.193272428     2.214878999    -2.425392527 
H       -13.304726111     3.568389692    -0.855335339 
H       -12.935291914     3.315301780    -4.158739711 
C       -15.621695725     0.639122390    -2.547871893 
H       -15.562076689    -0.582268322    -4.225495287 
H       -17.252622354     1.892288154    -2.776633929 
C         3.393978893    -6.562611644     1.688968982 
C         6.039363230    -6.640888851     1.547154664 
C         7.299118578    -5.281653177     3.549801155 
C         6.001969361    -3.981198135     5.471029357 
C         3.344261953    -3.975851559     5.436811900 
C         2.042913805    -5.280440183     3.515758669 
C        -0.709785492    -6.017188358     3.223164195 
C        -2.757986690    -4.010344511     3.529314992 
C        -4.935591164    -4.175313568     1.912170824 
C        -4.984054507    -6.043835010    -0.163570676 
C        -2.674908142    -7.380401150    -0.859292932 
H        -2.630121508    -8.284294780    -2.695691735 
C        -0.650188486    -7.154843697     0.642114178 
C         7.512265310    -7.927940040    -0.382953558 
C         6.268674830    -9.453329730    -2.446426687 
H         7.738645538   -10.165929800    -3.701674853 
H         4.920019610    -8.310527295    -3.515929119 
H         5.199825536   -11.028599769    -1.634509331 
C         7.449132903    -2.664079864     7.534952993 
H         9.134242017    -1.741398955     6.780588655 
H         8.081398155    -4.024958587     8.965221326 
H         6.251979887    -1.270368912     8.471169999 
C        -1.380548405    -8.123101954     5.202065191 
H        -1.241518402    -7.322879220     7.100590317 
H        -0.043753600    -9.686606869     5.021960933 
H        -3.300079824    -8.817076995     4.879196091 
C        -6.975598178    -2.422170475     2.191404773 
C        -6.875514362    -0.273234275     4.037094696 
H        -8.558174410     0.905887659     3.950105421 
H        -5.227403710     0.905009784     3.657292341 
H        -6.624743863    -0.999681271     5.952290925 
C       -11.184854998    -1.083053197     0.401023081 
H       -11.339317623     0.214527546     2.000788461 
C       -13.605589638    -2.675556145     0.244806968 
H       -13.792799240    -3.778627296     1.985480941 
H       -13.417316820    -4.029936699    -1.317264284 
C       -15.929105250    -0.997336020    -0.176656542 
H       -17.621810461    -2.178030815    -0.329078735 
H       -16.198861528     0.228651397     1.476903099 
O        -0.783921354     5.850369050     8.655129703 
O         3.234426506     6.199769120     9.584678055 
O         9.776479444     1.846008534     3.219000830 
O        12.165925944    -3.198285820    -5.090101689 
O         9.061728266    -5.072183959    -7.091927565 
O         0.663406674    -3.430470866    -5.111261362 
O        -0.518754659    -1.812139805    -1.520352552 
N         1.477734457     5.431045152     8.258822761 
N         9.919608874    -3.700627306    -5.413067713 
N         1.117700202    -2.366765381    -3.094085154 
C         3.265546051     1.059026962     1.740185298 
C         0.752124532     1.604407126     2.320350530 
H        -0.775439851     0.943741590     1.150141457 
C         0.204192299     3.031611600     4.469974109 
H        -1.730009688     3.465986995     4.972342482 
C         2.137058026     3.910556784     6.013094418 
C         4.673281516     3.429662855     5.489038161 
H         6.170881934     4.135026371     6.694749523 
C         5.182706927     2.024614211     3.349505815 
C         7.709244423     1.324716044     2.354012848 
C         7.173969225    -0.167312054     0.022313142 
C         8.974541672    -1.211879092    -1.551944101 
H        10.975096518    -0.994286968    -1.174505278 
C         8.092620655    -2.547463052    -3.638368137 
C         5.538298422    -2.835790695    -4.112756118 
H         4.900416172    -3.876397933    -5.751865504 
C         3.764490762    -1.785960036    -2.462804756 
C         4.522098177    -0.373041956    -0.342118701 

3_COMPLEX1.wfx

