%MEM=12GB
%nprocs=6
#p pbepbe aug-cc-pvtz Int(Grid=UltraFine) units=au output=wfx

3_COMPLEX2 

0 1
N        -8.257260506    -2.769686410     0.665192909 
H        -8.225810606    -4.247857987    -0.664113494 
N        -8.287642904     2.464471205    -1.214616530 
H        -8.387622191     3.925868243     0.130941584 
O         2.108926689    -8.454648010    -1.288764063 
O        10.150024558    -9.066549204    -2.217356786 
O        10.579111410    -6.442284469     1.698609763 
H        10.948466396    -7.513133244     0.138247555 
O         3.336649204    -3.479037093     5.959434779 
H         1.447433919    -3.330061483     5.645434486 
O        -1.384929417    -3.137666987     4.639467471 
O        -6.536860220    -6.303164421    -2.066704258 
O         1.783543603     8.311890007     1.537345545 
O         9.743305250     8.889610242     3.028195092 
O        10.454143175     6.704275605    -1.096516754 
H        10.700245953     7.614515201     0.588365231 
O         3.531074349     3.877744748    -5.947540827 
H         1.652922425     3.580340407    -5.692870427 
O        -1.199157678     3.137011744    -4.757736081 
O        -6.852368514     5.991069749     1.681686698 
C         3.937029633    -7.375930228     0.307716647 
C         6.554508046    -7.614230457    -0.047800620 
C         8.051067078    -6.355384103     1.848178651 
C         6.996158217    -4.950545276     3.838551640 
C         4.351488922    -4.821102739     4.058905685 
C         2.825665407    -6.065229108     2.270740695 
C         0.017881308    -6.605974656     2.182629387 
C        -1.862992481    -4.499385833     2.765695746 
C        -4.159103301    -4.428672090     1.313610458 
C        -4.494283335    -6.166591418    -0.841657413 
C        -2.343899517    -7.615074877    -1.784340973 
H        -2.515151884    -8.444761001    -3.648742922 
C        -0.201945528    -7.628847445    -0.435982165 
C         7.787315388    -8.911966701    -2.133954006 
C         6.275482328   -10.047979758    -4.265787928 
H         7.587959152   -10.860008440    -5.631953179 
H         5.111882006    -8.594331362    -5.168125273 
H         4.986035083   -11.505254686    -3.566072865 
C         8.683197912    -3.603199410     5.685565913 
H         7.644108033    -2.096546606     6.637837373 
H        10.331791782    -2.817825815     4.717394288 
H         9.396867123    -4.902822872     7.134740350 
C        -0.625522797    -8.763950138     4.115670918 
H        -0.278019270    -8.065862057     6.027703910 
H         0.586118767   -10.396172315     3.751703107 
H        -2.607371244    -9.319865306     3.928796550 
C        -6.071771376    -2.607140378     1.899754001 
C        -5.668283159    -0.545825759     3.799627075 
H        -7.209849948     0.816964093     3.790272263 
H        -3.893969895     0.431383630     3.408865115 
H        -5.457308446    -1.355962538     5.688752273 
C       -10.477331953    -1.151567740     0.761590385 
H       -10.493394171    -0.087450182     2.533595901 
C       -12.852904241    -2.816651507     0.623321596 
H       -12.844848481    -4.119174090     2.231334793 
H       -12.752588606    -3.975616538    -1.096531970 
C       -15.268258032    -1.220719579     0.586808942 
H       -16.918708201    -2.461770129     0.446158470 
H       -15.442073284    -0.188318066     2.379523573 
C         3.720928215     7.380868014    -0.018096436 
C         6.308809260     7.654377334     0.496468765 
C         7.939553171     6.586994267    -1.409857102 
C         7.035330325     5.350369659    -3.576679736 
C         4.411143066     5.113899674    -3.912012608 
C         2.755818503     6.151774447    -2.105911307 
C        -0.070227049     6.584719837    -2.129535676 
C        -1.835228460     4.430738868    -2.879242490 
C        -4.204514617     4.246742025    -1.564935840 
C        -4.725736520     5.926828277     0.604417437 
C        -2.674057120     7.382037924     1.731822033 
H        -2.969121657     8.122034914     3.617790459 
C        -0.457329997     7.484771267     0.516394211 
C         7.389865891     8.814695273     2.743043080 
C         5.739386208     9.920751645     4.783917902 
H         6.958510551    10.699603745     6.252252059 
H         4.509081563     8.460392232     5.578719947 
H         4.511440839    11.398369172     4.018546641 
C         8.851182864     4.271875564    -5.479326298 
H         7.955669061     2.749611689    -6.545304255 
H        10.550794113     3.564120370    -4.545404434 
H         9.455020638     5.722436390    -6.832167544 
C        -0.708169920     8.793765229    -4.004805199 
H        -0.245578997     8.192310207    -5.925422501 
H         0.419084208    10.454495412    -3.518587455 
H        -2.716844334     9.265945740    -3.888631358 
C        -6.019227003     2.380961871    -2.297173230 
C        -5.425243976     0.351036239    -4.182610157 
H        -6.915718760    -1.064514740    -4.280221929 
H        -3.651103918    -0.569828934    -3.674624101 
H        -5.119305534     1.182859861    -6.048777423 
C       -10.437202409     0.769213537    -1.458627434 
H       -10.296738011    -0.293583608    -3.225963843 
C       -12.874672859     2.348088815    -1.484866527 
H       -12.803765457     3.650944359    -3.091140519 
H       -12.932862501     3.508752402     0.235632908 
C       -15.227852965     0.666210884    -1.610320227 
H       -16.927696807     1.846736242    -1.583421571 
H       -15.242739764    -0.369478505    -3.409728080 
Cl       10.015312166    -2.649972109    -3.955340811 
N         3.085552496     2.427696494     3.532166714 
N         4.064242850    -2.740675728    -3.781394671 
N         1.316217036    -0.859956273    -0.973426294 
O         0.779485018     2.294068181     3.191877307 
O         4.116167474     3.542909366     5.309004235 
O         1.597169327    -2.361633310    -3.106917438 
C         3.667333854    -0.283387634    -0.323374818 
C         4.697805816     1.190326665     1.677010241 
C         7.274572684     1.464791359     1.829860210 
H         8.034506465     2.608550495     3.348823550 
C         8.947450346     0.293121662     0.093385103 
H        10.963854299     0.574854050     0.302089619 
C         8.043040644    -1.182707259    -1.841546188 
C         5.377437752    -1.463257915    -2.078625207 

3_COMPLEX2.wfx

