98
3_HOST.log	Energy: -1655426.8498605
N          0.66465        1.24888        4.62272
H         -0.02078        2.03112        4.50066
O         -0.45998        3.30525       -1.30547
O         -0.98589        3.36776       -5.56607
O          0.79517        1.60164       -5.68980
H          0.09598        2.30001       -5.93189
O          2.68969       -0.15144       -1.73912
H          2.48225       -0.13896       -0.75401
O          1.92732        0.05343        0.79507
O         -0.63399        3.08361        3.41780
C          0.18503        2.45125       -2.22347
C         -0.00130        2.50530       -3.61220
C          0.85469        1.61279       -4.35256
C          1.74712        0.71412       -3.74188
C          1.84544        0.71015       -2.34338
C          1.07368        1.61318       -1.58614
C          1.21687        2.11128       -0.16542
C          1.35130        1.14448        0.99726
C          0.87446        1.60874        2.27967
C         -0.10636        2.71137        2.33164
C         -0.57163        3.33072        1.09996
H         -1.43040        3.98831        1.16403
C          0.00130        2.97532       -0.06065
C         -0.95017        3.35342       -4.31301
C         -1.93169        4.21778       -3.55832
H         -2.60298        4.68436       -4.28047
H         -1.40651        4.99010       -2.98692
H         -2.50106        3.62134       -2.83898
C          2.57383       -0.20956       -4.59339
H          1.96761       -0.64681       -5.39006
H          3.00644       -1.00336       -3.98285
H          3.39373        0.33554       -5.07731
C          2.49555        3.02506       -0.07876
H          2.43379        3.80086       -0.84567
H          3.38146        2.41125       -0.26157
H          2.56332        3.48913        0.90893
C          1.25434        0.92431        3.46770
C          2.35516       -0.09816        3.49665
H          2.86841       -0.06165        4.46132
H          3.06701        0.09154        2.69645
H          1.97248       -1.11150        3.34642
C          0.64020        0.44695        5.83573
H          1.50542       -0.22221        5.84084
C          0.66961        1.32397        7.09152
H          1.57497        1.93997        7.07700
H         -0.18773        2.01064        7.06776
C          0.61485        0.45861        8.35725
H          0.60964        1.10095        9.24432
H          1.52513       -0.15413        8.41447
N         -0.66465       -1.24888        4.62272
H          0.02078       -2.03112        4.50066
O          0.45998       -3.30525       -1.30547
O          0.98589       -3.36776       -5.56607
O         -0.79517       -1.60164       -5.68980
H         -0.09598       -2.30001       -5.93189
O         -2.68969        0.15144       -1.73912
H         -2.48225        0.13896       -0.75401
O         -1.92732       -0.05343        0.79507
O          0.63399       -3.08361        3.41780
C         -0.18503       -2.45125       -2.22347
C          0.00130       -2.50530       -3.61220
C         -0.85469       -1.61279       -4.35256
C         -1.74712       -0.71412       -3.74188
C         -1.84544       -0.71015       -2.34338
C         -1.07368       -1.61318       -1.58614
C         -1.21687       -2.11128       -0.16542
C         -1.35130       -1.14448        0.99726
C         -0.87446       -1.60874        2.27967
C          0.10636       -2.71137        2.33164
C          0.57163       -3.33072        1.09996
H          1.43040       -3.98831        1.16403
C         -0.00130       -2.97532       -0.06065
C          0.95017       -3.35342       -4.31301
C          1.93169       -4.21778       -3.55832
H          2.60298       -4.68436       -4.28047
H          1.40651       -4.99010       -2.98692
H          2.50106       -3.62134       -2.83898
C         -2.57383        0.20956       -4.59339
H         -1.96761        0.64681       -5.39006
H         -3.00644        1.00336       -3.98285
H         -3.39373       -0.33554       -5.07731
C         -2.49555       -3.02506       -0.07876
H         -2.43379       -3.80086       -0.84567
H         -3.38146       -2.41125       -0.26157
H         -2.56332       -3.48913        0.90893
C         -1.25434       -0.92431        3.46770
C         -2.35516        0.09816        3.49665
H         -2.86841        0.06165        4.46132
H         -3.06701       -0.09154        2.69645
H         -1.97248        1.11150        3.34642
C         -0.64020       -0.44695        5.83573
H         -1.50542        0.22221        5.84084
C         -0.66961       -1.32397        7.09152
H         -1.57497       -1.93997        7.07700
H          0.18773       -2.01064        7.06776
C         -0.61485       -0.45861        8.35725
H         -0.60964       -1.10095        9.24432
H         -1.52513        0.15413        8.41447
