%MEM=12GB
%nprocs=6
#p pbepbe aug-cc-pvtz Int(Grid=UltraFine) units=au output=wfx

3_HOST 

0 1
N         0.892417254    -2.520099547     7.916702946 
H         2.857370240    -2.563057571     7.686037784 
O         5.193647812    -3.576920059    -3.285953058 
O         5.951917770    -2.923706854   -11.337328379 
O         1.217503924    -3.152202456   -11.571131268 
H         3.083112751    -3.068938885   -12.028620339 
O        -3.643526603    -3.555453535    -4.105443671 
H        -3.361395582    -3.282263508    -2.243856661 
O        -2.385094003    -2.754362903     0.683484136 
O         5.106802674    -3.051548765     5.639735695 
C         3.180267918    -3.386059369    -5.020721201 
C         3.493384037    -3.195332026    -7.645048569 
C         1.157089869    -3.249377995    -9.044127182 
C        -1.234291634    -3.346346510    -7.890111142 
C        -1.365300349    -3.478313284    -5.247321197 
C         0.878167526    -3.555095744    -3.816346970 
C         1.389653067    -4.390322537    -1.131569924 
C        -0.129372123    -3.343891195     1.065568488 
C         1.126215537    -3.271760142     3.488974857 
C         3.914659437    -3.311881201     3.587188530 
C         5.371637205    -3.453808518     1.259640669 
H         7.384056642    -3.096096151     1.380711884 
C         4.145150402    -3.798782907    -0.933589024 
C         5.886341057    -2.955201971    -8.969374240 
C         8.343610469    -2.690270878    -7.543222366 
H         9.850553977    -2.350095144    -8.907894370 
H         8.749796732    -4.407835552    -6.463444398 
H         8.238918292    -1.135573273    -6.183868291 
C        -3.576664998    -3.319805843    -9.499216616 
H        -3.412462993    -1.916897657   -11.004711636 
H        -5.235091593    -2.909735049    -8.345465357 
H        -3.863262866    -5.158163672   -10.413696160 
C         1.031426333    -7.338579627    -0.967818323 
H         2.191499798    -8.242530630    -2.417058318 
H        -0.954625098    -7.789982842    -1.313272045 
H         1.591737670    -8.025252607     0.898646494 
C        -0.312479340    -2.927784771     5.734033113 
C        -3.142363223    -3.157203825     5.788725141 
H        -3.746449296    -3.919124762     7.611694334 
H        -3.786398160    -4.391411414     4.276571789 
H        -4.066322899    -1.330674609     5.504835852 
C        -0.194058598    -1.462642668    10.208956350 
H        -2.230857591    -1.814580338    10.218606517 
C         0.990739510    -2.622841710    12.582062681 
H         0.693910254    -4.670788837    12.554611720 
H         3.041879587    -2.304237253    12.537160565 
C        -0.145466991    -1.442197432    14.973938317 
H         0.756429403    -2.254656296    16.650255748 
H        -2.161104489    -1.928931745    15.082067092 
N        -0.892417254     2.520099547     7.916702946 
H        -2.857370240     2.563057571     7.686037784 
O        -5.193647812     3.576920059    -3.285953058 
O        -5.951917770     2.923706854   -11.337328379 
O        -1.217503924     3.152202456   -11.571131268 
H        -3.083112751     3.068938885   -12.028620339 
O         3.643526603     3.555453535    -4.105443671 
H         3.361395582     3.282263508    -2.243856661 
O         2.385094003     2.754362903     0.683484136 
O        -5.106802674     3.051548765     5.639735695 
C        -3.180267918     3.386059369    -5.020721201 
C        -3.493384037     3.195332026    -7.645048569 
C        -1.157089869     3.249377995    -9.044127182 
C         1.234291634     3.346346510    -7.890111142 
C         1.365300349     3.478313284    -5.247321197 
C        -0.878167526     3.555095744    -3.816346970 
C        -1.389653067     4.390322537    -1.131569924 
C         0.129372123     3.343891195     1.065568488 
C        -1.126215537     3.271760142     3.488974857 
C        -3.914659437     3.311881201     3.587188530 
C        -5.371637205     3.453808518     1.259640669 
H        -7.384056642     3.096096151     1.380711884 
C        -4.145150402     3.798782907    -0.933589024 
C        -5.886341057     2.955201971    -8.969374240 
C        -8.343610469     2.690270878    -7.543222366 
H        -9.850553977     2.350095144    -8.907894370 
H        -8.749796732     4.407835552    -6.463444398 
H        -8.238918292     1.135573273    -6.183868291 
C         3.576664998     3.319805843    -9.499216616 
H         3.412462993     1.916897657   -11.004711636 
H         5.235091593     2.909735049    -8.345465357 
H         3.863262866     5.158163672   -10.413696160 
C        -1.031426333     7.338579627    -0.967818323 
H        -2.191499798     8.242530630    -2.417058318 
H         0.954625098     7.789982842    -1.313272045 
H        -1.591737670     8.025252607     0.898646494 
C         0.312479340     2.927784771     5.734033113 
C         3.142363223     3.157203825     5.788725141 
H         3.746449296     3.919124762     7.611694334 
H         3.786398160     4.391411414     4.276571789 
H         4.066322899     1.330674609     5.504835852 
C         0.194058598     1.462642668    10.208956350 
H         2.230857591     1.814580338    10.218606517 
C        -0.990739510     2.622841710    12.582062681 
H        -0.693910254     4.670788837    12.554611720 
H        -3.041879587     2.304237253    12.537160565 
C         0.145466991     1.442197432    14.973938317 
H        -0.756429403     2.254656296    16.650255748 
H         2.161104489     1.928931745    15.082067092 

3_HOST.wfx

