%MEM=12GB
%nprocs=6
#p pbepbe aug-cc-pvtz Int(Grid=UltraFine) units=au output=wfx

3_MONOMER2 

0 1
Cl        6.747244073    -0.913168845     0.000000000 
N        -4.671030585    -0.300018144     0.000000000 
N         3.303332009     3.963591732     0.000000000 
N        -1.036662405     4.323504259     0.000000000 
O        -5.674453940     1.798593741     0.000000000 
O        -5.792664752    -2.348264974     0.000000000 
O         1.265917443     5.556121182     0.000000000 
C        -0.422837834     1.890068186     0.000000000 
C        -1.895691305    -0.363328528     0.000000000 
C        -0.674544608    -2.650852571     0.000000000 
H        -1.819987781    -4.350253875     0.000000000 
C         2.004165704    -2.848465538     0.000000000 
H         2.872200907    -4.704062909     0.000000000 
C         3.504239805    -0.727390164     0.000000000 
C         2.290773268     1.673926448     0.000000000 

3_MONOMER2.wfx

