%MEM=12GB
%nprocs=6
#p pbepbe aug-cc-pvtz Int(Grid=UltraFine) units=au output=wfx

3_MONOMER1 

0 1
O       -10.851735870     1.269132528    -0.274055646 
O       -10.235507297    -2.818566592    -0.053658322 
O        -0.582420052    -5.974464839     0.218163291 
O         9.357084696    -4.264358151    -0.099201020 
O        10.582456420    -0.307129488    -0.135579818 
O         4.354953738     6.290339581    -1.091293116 
O         1.116662319     5.787157837     1.440017873 
N        -9.489023587    -0.614798037    -0.137630662 
N         8.956677238    -1.971947786    -0.091193555 
N         2.862911441     4.985760224     0.120979282 
C        -1.558740965     0.671191756     0.075416570 
C        -3.205501728     2.726359308    -0.060350874 
H        -2.522984714     4.651658322    -0.082241433 
C        -5.805492253     2.267659197    -0.138476523 
H        -7.145188924     3.813002733    -0.242632978 
C        -6.716710747    -0.200295572    -0.070154375 
C        -5.124758048    -2.294587560     0.050442463 
H        -5.874877288    -4.200465289     0.082171072 
C        -2.555026367    -1.811069567     0.110477644 
C        -0.450020379    -3.680236456     0.163211397 
C         1.909246493    -2.111287440     0.121829499 
C         4.373789439    -2.974966413     0.074644273 
H         4.816184322    -4.975357758     0.096488170 
C         6.276865213    -1.153509733    -0.022091374 
C         5.752311196     1.413733821    -0.061621694 
H         7.272186712     2.780966273    -0.159310202 
C         3.240791509     2.214167409     0.047431566 
C         1.245867483     0.481911695     0.118218490 

3_MONOMER1.wfx

