%MEM=12GB
%nprocs=6
#p pbepbe aug-cc-pvtz Int(Grid=UltraFine) scf=(conver=6) units=au output=wfx

4_COMPLEX2 

0 1
C         0.996656162     0.005161669    -4.682795901 
C        -0.711216098     0.003965711    -6.700184647 
C        -2.251501884    -2.216778091    -7.179446963 
C        -4.745053175    -1.373186889    -7.955441033 
C         1.226694229    -2.195138949    -3.068565159 
C        -2.013385902    -4.336529444    -5.623312098 
C         1.219076382     2.203446089    -3.064742915 
C        -2.259176750     2.220206082    -7.175594697 
C        -4.749795344     1.369362438    -7.953066910 
C        -2.028409667     4.338031128    -5.615755399 
C        -6.889381150    -2.691660673    -7.148635519 
C        -0.253242725    -4.315087345    -3.528963945 
C        -4.240801894    -5.687135574    -4.780424385 
C        -6.898664800     2.679025432    -7.143978789 
C        -6.629698430    -4.884261328    -5.529829118 
C        -9.102141776    -1.326002677    -6.295551321 
C         1.626666575    -1.354471781    -0.497940154 
C        -0.268196064     4.319046318    -3.521459711 
C         1.621976282     1.359720063    -0.495584871 
C        -1.368139578    -5.675569866    -1.437930854 
C        -3.832130006    -6.516766078    -2.208448165 
C        -8.685298616    -4.884208914    -3.726327780 
C       -10.211317390    -2.685616709    -4.199271371 
C        -9.106687987     1.304255361    -6.293266813 
C         0.694101735    -2.748141474     1.596318137 
C        -0.862551174    -4.991091427     1.106308699 
C        -5.852772036    -6.700549047    -0.455152721 
C        -8.373835868    -5.852088684    -1.241446057 
C       -11.465394351    -1.405551929    -2.200461199 
C       -10.220556427     2.656394568    -4.194639758 
C         0.277383913    -1.363944801     3.856580636 
C         0.684605554     2.746531959     1.601085417 
C        -2.726866613    -5.676914577     2.906617152 
C        -5.190007452    -6.523938709     2.137151588 
C       -10.043693519    -4.889815702     0.627553395 
C       -11.570757871    -2.691422682     0.153565151 
C       -11.470192902     1.368540653    -2.198056774 
C        -1.519531975    -2.208991796     5.738010303 
C         0.272689566     1.356991722     3.858942157 
C        -2.996731168    -4.333166362     5.269583886 
C        -6.989692880    -5.702728544     4.022591318 
C        -9.379922084    -4.896681153     3.279905376 
C       -11.853159446    -1.338389462     2.511656825 
C       -11.579988700     2.649953053     0.158198858 
C        -4.260459096     5.679490218    -4.770540589 
C        -6.646563653     4.869703201    -5.521367778 
C        -1.387734029     5.672091083    -1.428098357 
C        -8.702141399     4.859423714    -3.717873233 
C        -0.879809241     4.984905001     1.114945940 
C        -2.630568527    -0.011169717     6.935046559 
C        -1.527126064     2.192557743     5.741836399 
C        -5.637524295    -4.358935688     5.990191195 
C       -10.516611950    -2.707799635     4.468458688 
C       -11.857699516     1.291851407     2.513938951 
C       -10.060522650     4.852784242     0.636010823 
C        -3.854637718     6.506101810    -2.197150251 
C        -8.394004517     5.824058057    -1.231312551 
C        -2.746472418     5.661158862     2.916446212 
C        -5.184627184    -0.016174818     7.617007417 
C        -3.011663881     4.312420400     5.277098012 
C        -6.720763085    -2.237156383     7.132848372 
C        -9.213578795    -1.393294937     6.354646753 
C       -10.525886592     2.662473151     4.473123194 
C        -9.396773333     4.857328298     3.288375128 
C        -5.875883651     6.679851414    -0.443545955 
C        -5.212510963     6.501013086     2.148458885 
C        -6.728426121     2.200319232     7.136704281 
C        -5.652529589     4.327803499     5.997742112 
C        -9.218317339     1.349205345     6.357029868 
C        -7.009338556     5.670324068     4.032466284 
C        12.165673945    -2.593664823     4.592959089 
C        10.461683312    -1.311074039     3.013756135 
C        10.456768987     1.346259689     3.014937446 
C        12.155999090     2.633752252     4.595281183 
C        13.854048017     1.339985017     6.130987118 
C        13.858924855    -1.294982425     6.129814161 
C         8.658972712     2.895856812     1.518283568 
C         7.129054415     4.607815305     2.809880309 
C         5.658886048     6.446634290     1.599669778 
C         5.737538194     6.551400803    -1.138867746 
C         7.211143465     4.743566795    -2.398559671 
C         8.670596855     2.932353150    -1.153660356 
C         4.023277727     8.158278586     3.043732362 
C         2.994072769    10.108924412     1.656002383 
C         3.099933846    10.238188726    -1.039999606 
C         4.235061004     8.424826843    -2.529853818 
C         1.011127620    11.690060588    -1.868799955 
C        -0.385740942    12.443873389     0.287880224 
C         0.846620565    11.481987241     2.462098053 
C        -2.953056454    12.962173221     0.216225969 
C        -4.007720934    13.065075010    -2.301499950 
C        -2.635882821    12.343519753    -4.421764478 
C        -0.067738505    11.430624084    -4.246965308 
C         1.359601099     9.860335005    -5.948271654 
C         3.404306483     8.420102501    -5.122848190 
C        -4.193002727    12.830592338     2.646934615 
C        -2.982322983    11.903171032     4.785240039 
C        -0.408496086    10.994313694     4.714192042 
C         0.875519911     9.232482918     6.345349078 
C         2.981774449     7.873911028     5.542167978 
C        10.418828407     1.353405403    -2.683523056 
C        10.423663975    -1.313296457    -2.684700195 
C        12.094882045    -2.585519604    -4.309279534 
C        13.747855039    -1.289568355    -5.889994803 
C        13.743084285     1.344557437    -5.888830437 
C        12.085423191     2.633113349    -4.306975913 
C         8.669574145    -2.865940657     1.515748345 
C         7.145983597    -4.584654746     2.805838602 
C         5.682370606    -6.427618337     1.593992837 
C         5.761185324    -6.529513543    -1.144660385 
C         7.228228521    -4.715239605    -2.402738862 
C         8.681199907    -2.899936796    -1.156224002 
C         4.265283379    -8.406966504    -2.537304609 
C         3.136758180   -10.225771246    -1.049080696 
C         3.030663783   -10.099453516     1.647045114 
C         4.053006959    -8.146469268     3.036540648 
C         0.888186530   -11.480935040     2.452006135 
C        -0.340921549   -12.445118657     0.276976147 
C         1.053088155   -11.684302637    -1.879097949 
C         3.434365551    -8.402835567    -5.130256651 
C         1.394787471    -9.849623566    -5.956905945 
C        -0.026842506   -11.426563350    -4.256961037 
C        -2.591722571   -12.348477619    -4.432406696 
C        -3.960827312   -13.076888654    -2.312710463 
C        -2.906362920   -12.972582217     0.205039771 
C         3.010655227    -7.868177220     5.535310419 
C         0.909344082    -9.235031039     6.337378004 
C        -0.368478815   -10.999930006     4.704674257 
C        -2.938995271   -11.918164457     4.775095365 
C        -4.146542448   -12.847836452     2.635998387 
H         0.719035157     9.610643985    -7.884176185 
H         4.249594921     7.114355558    -6.462735362 
H         3.713320404     6.419280412     6.793221225 
H         0.074706413     8.781046881     8.182464028 
H        -4.084774720    11.679989761     6.504835969 
H        -6.188916760    13.297536218     2.788181969 
H        -5.989909286    13.547589060    -2.546104631 
H        -3.603489846    12.291661747    -6.233505492 
H        -3.559653012   -12.298401242    -6.244027996 
H        -5.941291482   -13.566273987    -2.557642381 
H        -6.140744367   -13.322095668     2.776986832 
H        -4.042090182   -11.700574552     6.494997654 
H         0.107098453    -8.788223509     8.174997609 
H         3.737104845    -6.412134654     6.787692606 
H         4.274951238    -7.092891770    -6.468999274 
H         0.753254766    -9.600467691    -7.892557382 
H         7.137908094     4.550156557     4.862312093 
H         7.272740774     4.783242112    -4.450376883 
H         7.154777867    -4.528882987     4.858323019 
H         7.289877173    -4.752792183    -4.454593971 
H        12.073880580     4.686254164    -4.290939566 
H        15.023513729     2.391393500    -7.104361368 
H        15.032066254    -2.330687030    -7.106447412 
H        12.090780935    -4.638702046    -4.295053506 
H        12.135185867     4.686955247     4.586884831 
H        15.163866270     2.383595339     7.317707144 
H        15.172607455    -2.334789427     7.315601406 
H        12.152467045    -4.646922302     4.582741195 

4_COMPLEX2.wfx

