%MEM=12GB
%nprocs=6
#p pbepbe aug-cc-pvtz Int(Grid=UltraFine) units=au output=wfx

4_HOST 

0 1
C        -7.196881786    -5.194969522     4.353053291 
C        -5.199732419    -4.381491458     2.815692441 
C        -2.920395510    -5.755299845     2.815707095 
C        -2.706487090    -7.901735462     4.352257183 
C        -4.715460692    -8.709436266     5.849210666 
C        -6.972169711    -7.348629303     5.849895596 
C        -0.690608323    -4.903386641     1.335902618 
C         1.499540750    -4.199028504     2.611714659 
C         3.711313374    -3.425814236     1.370009050 
C         3.711313374    -3.425814236    -1.370009050 
C         1.499540750    -4.199028504    -2.611714659 
C        -0.690608323    -4.903386641    -1.335902618 
C         6.002246672    -2.756840251     2.784396970 
C         7.910488043    -1.707121230     1.351354634 
C         7.910488043    -1.707121230    -1.351354634 
C         6.002246672    -2.756840251    -2.784396970 
C        10.455698814    -1.618849946    -2.169853543 
C        12.026847816    -1.565508113     0.000000000 
C        10.455698814    -1.618849946     2.169853543 
C        14.484840262    -2.475714959     0.000000000 
C        15.456940357    -3.104869276    -2.473426999 
C        13.920145504    -3.158284505    -4.600998909 
C        11.252950829    -2.587671549    -4.475585084 
C         9.230593278    -3.342632009    -6.131449649 
C         6.728759447    -3.428856015    -5.319502924 
C        15.456940357    -3.104869276     2.473426999 
C        13.920145504    -3.158284505     4.600998909 
C        11.252950829    -2.587671549     4.475585084 
C         9.230593278    -3.342632009     6.131449649 
C         6.728759447    -3.428856015     5.319502924 
C        -2.920395510    -5.755299845    -2.815707095 
C        -5.199732419    -4.381491458    -2.815692441 
C        -7.196881786    -5.194969522    -4.353053291 
C        -6.972169711    -7.348629303    -5.849895596 
C        -4.715460692    -8.709436266    -5.849210666 
C        -2.706487090    -7.901735462    -4.352257183 
C        -5.485615759    -2.011671211     1.335977799 
C        -5.888467044     0.253349935     2.611974050 
C        -6.279480400     2.563382701     1.369984687 
C        -6.279480400     2.563382701    -1.369984687 
C        -5.888467044     0.253349935    -2.611974050 
C        -5.485615759    -2.011671211    -1.335977799 
C        -6.560405267     4.933185499    -2.784125048 
C        -7.283018628     6.988530824    -1.351555305 
C        -7.283018628     6.988530824     1.351555305 
C        -6.560405267     4.933185499     2.784125048 
C        -6.948197730     9.513377545     2.170069114 
C        -6.740681725    11.071687821     0.000000000 
C        -6.948197730     9.513377545    -2.170069114 
C        -5.771156736     5.537394694    -5.317140857 
C        -5.442445677     8.018815200    -6.129208542 
C        -5.857080207    10.138162604    -4.474702342 
C        -4.851094852    12.673255403    -4.600078790 
C        -4.650216394    14.197733927    -2.472778997 
C        -5.433817896    13.343875536     0.000000000 
C        -5.771156736     5.537394694     5.317140857 
C        -5.442445677     8.018815200     6.129208542 
C        -5.857080207    10.138162604     4.474702342 
C        -4.851094852    12.673255403     4.600078790 
C        -4.650216394    14.197733927     2.472778997 
H         9.666401823    -4.044018080    -8.013399705 
H         5.331281113    -4.203500224    -6.609802820 
H         5.331281113    -4.203500224     6.609802820 
H         9.666401823    -4.044018080     8.013399705 
H        14.728144914    -3.822396252     6.370240641 
H        17.406285523    -3.727853573     2.663290498 
H        17.406285523    -3.727853573    -2.663290498 
H        14.728144914    -3.822396252    -6.370240641 
H        -4.058944060    13.358268027    -6.368470552 
H        -3.710575721    16.015821339    -2.661758663 
H        -3.710575721    16.015821339     2.661758663 
H        -4.058944060    13.358268027     6.368470552 
H        -4.669929134     8.332495175     8.007547133 
H        -5.227991369     4.030533415     6.602420609 
H        -5.227991369     4.030533415    -6.602420609 
H        -4.669929134     8.332495175    -8.007547133 
H         1.472650728    -4.216334410     4.665024790 
H         1.472650728    -4.216334410    -4.665024790 
H        -5.905464079     0.219448167     4.665210646 
H        -5.905464079     0.219448167    -4.665210646 
H        -0.936858486    -8.943858610    -4.349252330 
H        -4.517872628   -10.391486588    -7.009139739 
H        -8.551132213    -7.958608465    -7.011074590 
H        -8.944353479    -4.116281167    -4.351773258 
H        -0.936858486    -8.943858610     4.349252330 
H        -4.517872628   -10.391486588     7.009139739 
H        -8.551132213    -7.958608465     7.011074590 
H        -8.944353479    -4.116281167     4.351773258 

4_HOST.wfx

