%MEM=12GB
%nprocs=6
#p pbepbe aug-cc-pvtz Int(Grid=UltraFine) units=au output=wfx

4_MONOMER1 

0 1
C         2.335549009     0.000000000    -6.288562897 
C         0.721724335     2.221239104    -6.288562897 
C        -1.889498839     1.372801263    -6.288562897 
C        -1.889498839    -1.372801263    -6.288562897 
C        -3.705437290     2.692157776    -4.901309363 
C         1.415351102     4.356002785    -4.901309363 
C         0.721724335    -2.221239104    -6.288562897 
C         4.580172377     0.000000000    -4.901309363 
C         1.415351102    -4.356002785    -4.901309363 
C        -3.705437290    -2.692157776    -4.901309363 
C        -5.594936130     1.319356513    -3.457860693 
C        -2.983712955     4.913396880    -3.457860693 
C        -5.594936130    -1.319356513    -3.457860693 
C        -2.983712955    -4.913396880    -3.457860693 
C        -0.474147738    -5.728804049    -3.457860693 
C         3.750900111    -4.356002785    -3.457860693 
C         5.301896712    -2.221239104    -3.457860693 
C         5.301896712     2.221239104    -3.457860693 
C         3.750900111     4.356002785    -3.457860693 
C        -0.474147738     5.728804049    -3.457860693 
C        -6.040986299     2.692157776    -1.122311684 
C        -4.427161625     4.913396880    -1.122311684 
C         3.304849941     5.728804049    -1.122311684 
C         0.693626767     6.577241889    -1.122311684 
C         6.469671217    -1.372801263    -1.122311684 
C         6.469671217     1.372801263    -1.122311684 
C         3.304849941    -5.728804049    -1.122311684 
C         0.693626767    -6.577241889    -1.122311684 
C        -4.427161625    -4.913396880    -1.122311684 
C        -6.040986299    -2.692157776    -1.122311684 
C        -6.469671217    -1.372801263     1.122311684 
C        -6.469671217     1.372801263     1.122311684 
C        -3.304849941     5.728804049     1.122311684 
C        -0.693626767     6.577241889     1.122311684 
C         6.040986299     2.692157776     1.122311684 
C         4.427161625     4.913396880     1.122311684 
C         4.427161625    -4.913396880     1.122311684 
C         6.040986299    -2.692157776     1.122311684 
C        -0.693626767    -6.577241889     1.122311684 
C        -3.304849941    -5.728804049     1.122311684 
C        -5.301896712     2.221239104     3.457860693 
C        -3.750900111     4.356002785     3.457860693 
C         0.474147738     5.728804049     3.457860693 
C         2.983712955     4.913396880     3.457860693 
C         5.594936130     1.319356513     3.457860693 
C         5.594936130    -1.319356513     3.457860693 
C         2.983712955    -4.913396880     3.457860693 
C         0.474147738    -5.728804049     3.457860693 
C        -3.750900111    -4.356002785     3.457860693 
C        -5.301896712    -2.221239104     3.457860693 
C        -1.415351102    -4.356002785     4.901309363 
C        -4.580172377     0.000000000     4.901309363 
C        -1.415351102     4.356002785     4.901309363 
C         3.705437290     2.692157776     4.901309363 
C         3.705437290    -2.692157776     4.901309363 
C         1.889498839    -1.372801263     6.288562897 
C        -0.721724335    -2.221239104     6.288562897 
C        -2.335549009     0.000000000     6.288562897 
C        -0.721724335     2.221239104     6.288562897 
C         1.889498839     1.372801263     6.288562897 

4_MONOMER1.wfx

