%MEM=12GB
%nprocs=6
#p pbepbe aug-cc-pvtz Int(Grid=UltraFine) units=au output=wfx

4_MONOMER2 

0 1
C        -4.567403527     0.000000000     6.084024159 
C        -2.333600547     0.000000000     7.493506977 
C        -0.721122227    -2.219386007     7.493506977 
C         1.887922501    -1.371655986     7.493506977 
C        -5.264924056    -2.200154384     4.612926985 
C        -1.411405310    -4.343858887     6.084024159 
C        -5.264924056     2.200154384     4.612926985 
C        -0.721122227     2.219386007     7.493506977 
C         1.887922501     1.371655986     7.493506977 
C        -1.411405310     4.343858887     6.084024159 
C         3.695107073    -2.684652434     6.084024159 
C        -3.719422171    -4.327355237     4.612926985 
C         0.465520157    -5.687125426     4.612926985 
C         3.695107073     2.684652434     6.084024159 
C         2.966194736    -4.874607002     4.612926985 
C         5.552631336    -1.314682428     4.612926985 
C        -6.413105662    -1.358903508     2.279691141 
C        -3.719422171     4.327355237     4.612926985 
C        -6.413105662     1.358903508     2.279691141 
C        -3.274152673    -5.679301652     2.279691141 
C        -0.689364600    -6.519150208     2.279691141 
C         4.389568026    -4.868904962     2.279691141 
C         5.987054909    -2.670152898     2.279691141 
C         5.552631336     1.314682428     4.612926985 
C        -6.144507524    -2.749870985     0.000000000 
C        -4.514039966    -4.994017054     0.000000000 
C         0.716525472    -6.693530787     0.000000000 
C         3.354677398    -5.836343264     0.000000000 
C         6.587344620    -1.386958546     0.000000000 
C         5.987054909     2.670152898     2.279691141 
C        -6.413105662    -1.358903508    -2.279691141 
C        -6.144507524     2.749870985     0.000000000 
C        -3.274152673    -5.679301652    -2.279691141 
C        -0.689364600    -6.519150208    -2.279691141 
C         4.389568026    -4.868904962    -2.279691141 
C         5.987054909    -2.670152898    -2.279691141 
C         6.587344620     1.386958546     0.000000000 
C        -5.264924056    -2.200154384    -4.612926985 
C        -6.413105662     1.358903508    -2.279691141 
C        -3.719422171    -4.327355237    -4.612926985 
C         0.465520157    -5.687125426    -4.612926985 
C         2.966194736    -4.874607002    -4.612926985 
C         5.552631336    -1.314682428    -4.612926985 
C         5.987054909     2.670152898    -2.279691141 
C         0.465520157     5.687125426     4.612926985 
C         2.966194736     4.874607002     4.612926985 
C        -3.274152673     5.679301652     2.279691141 
C         4.389568026     4.868904962     2.279691141 
C        -4.514039966     4.994017054     0.000000000 
C        -4.567403527     0.000000000    -6.084024159 
C        -5.264924056     2.200154384    -4.612926985 
C        -1.411405310    -4.343858887    -6.084024159 
C         3.695107073    -2.684652434    -6.084024159 
C         5.552631336     1.314682428    -4.612926985 
C         4.389568026     4.868904962    -2.279691141 
C        -0.689364600     6.519150208     2.279691141 
C         3.354677398     5.836343264     0.000000000 
C        -3.274152673     5.679301652    -2.279691141 
C        -2.333600547     0.000000000    -7.493506977 
C        -3.719422171     4.327355237    -4.612926985 
C        -0.721122227    -2.219386007    -7.493506977 
C         1.887922501    -1.371655986    -7.493506977 
C         3.695107073     2.684652434    -6.084024159 
C         2.966194736     4.874607002    -4.612926985 
C         0.716525472     6.693530787     0.000000000 
C        -0.689364600     6.519150208    -2.279691141 
C        -0.721122227     2.219386007    -7.493506977 
C        -1.411405310     4.343858887    -6.084024159 
C         1.887922501     1.371655986    -7.493506977 
C         0.465520157     5.687125426    -4.612926985 

4_MONOMER2.wfx

