70
4_MONOMER2.log	Energy: -1673695.1644772
C          1.42066        1.95537        3.21953
C          0.72585        0.99905        3.96539
C         -0.72585        0.99905        3.96539
C         -1.17445       -0.38160        3.96539
C          0.69570        2.93833        2.44106
C         -1.42066        1.95537        3.21953
C          2.57953        1.56964        2.44106
C          1.17445       -0.38160        3.96539
C          0.00000       -1.23489        3.96539
C          2.29867       -0.74688        3.21953
C         -2.29867       -0.74688        3.21953
C         -0.69570        2.93833        2.44106
C         -2.57953        1.56964        2.44106
C          0.00000       -2.41697        3.21953
C         -3.00950        0.24634        2.44106
C         -2.28994       -1.96823        2.44106
C          1.41298        3.16821        1.20636
C          3.00950        0.24634        2.44106
C          2.57651        2.32286        1.20636
C         -1.41298        3.16821        1.20636
C         -2.57651        2.32286        1.20636
C         -3.44979       -0.36480        1.20636
C         -3.00536       -1.73261        1.20636
C         -1.16427       -2.78608        2.44106
C          0.73395        3.48587        0.00000
C         -0.73395        3.48587        0.00000
C         -3.08846        1.77522        0.00000
C         -3.54206        0.37917        0.00000
C         -2.64272       -2.38873        0.00000
C         -0.71910       -3.39367        1.20636
C          1.41298        3.16821       -1.20636
C          3.08846        1.77522        0.00000
C         -1.41298        3.16821       -1.20636
C         -2.57651        2.32286       -1.20636
C         -3.44979       -0.36480       -1.20636
C         -3.00536       -1.73261       -1.20636
C         -1.45517       -3.25153        0.00000
C          0.69570        2.93833       -2.44106
C          2.57651        2.32286       -1.20636
C         -0.69570        2.93833       -2.44106
C         -2.57953        1.56964       -2.44106
C         -3.00950        0.24634       -2.44106
C         -2.28994       -1.96823       -2.44106
C         -0.71910       -3.39367       -1.20636
C          2.28994       -1.96823        2.44106
C          1.16427       -2.78608        2.44106
C          3.44979       -0.36480        1.20636
C          0.71910       -3.39367        1.20636
C          3.54206        0.37917        0.00000
C          1.42066        1.95537       -3.21953
C          2.57953        1.56964       -2.44106
C         -1.42066        1.95537       -3.21953
C         -2.29867       -0.74688       -3.21953
C         -1.16427       -2.78608       -2.44106
C          0.71910       -3.39367       -1.20636
C          3.00536       -1.73261        1.20636
C          1.45517       -3.25153        0.00000
C          3.44979       -0.36480       -1.20636
C          0.72585        0.99905       -3.96539
C          3.00950        0.24634       -2.44106
C         -0.72585        0.99905       -3.96539
C         -1.17445       -0.38160       -3.96539
C          0.00000       -2.41697       -3.21953
C          1.16427       -2.78608       -2.44106
C          2.64272       -2.38873        0.00000
C          3.00536       -1.73261       -1.20636
C          1.17445       -0.38160       -3.96539
C          2.29867       -0.74688       -3.21953
C          0.00000       -1.23489       -3.96539
C          2.28994       -1.96823       -2.44106
