142
5_COMPLEX2.log	Energy: -2044644.0160698
C          2.00646        7.88779       -0.22980
C          0.87896        8.70148       -0.15028
C         -0.38279        8.11259       -0.14074
C         -0.46970        6.72210       -0.24084
N          0.61134        5.93370       -0.34420
C          1.82534        6.50614       -0.31940
C         -1.82829        6.06360       -0.16678
O         -2.83657        6.70908        0.11872
C          3.03848        5.60334       -0.32081
O          4.17489        6.05634       -0.18661
N         -1.79947        4.72661       -0.42284
C         -2.87817        3.81371       -0.25343
C         -3.44374        3.60709        1.01264
C         -4.43368        2.62641        1.14615
C         -4.85871        1.83974        0.07447
C         -4.27766        2.08261       -1.17718
C         -3.30624        3.06630       -1.36439
C         -5.89150        0.70897        0.24747
C         -6.67339        0.85927        1.57685
C         -7.77951       -0.18998        1.73317
C         -8.79204       -0.09820        0.58778
C         -8.07742       -0.23057       -0.76002
C         -6.94069        0.79175       -0.89396
C         -5.10614       -0.61867        0.23202
C         -4.41402       -1.04254        1.37304
C         -3.66711       -2.21990        1.39769
C         -3.58169       -2.99090        0.22380
C         -4.25374       -2.59578       -0.94460
C         -5.00906       -1.41689       -0.90953
C         -2.97540       -2.66921        2.65903
N         -2.70449       -4.10930        0.21543
C         -3.02027       -5.39074       -0.12160
O         -4.15616       -5.80950       -0.34181
C         -4.14511       -3.38360       -2.22166
C         -2.98774        4.39260        2.21199
C         -2.71335        3.32414       -2.72664
C         -1.81228       -6.29159       -0.23869
N         -0.59664       -5.73827       -0.10749
C          0.48248       -6.51044       -0.30816
C          0.39145       -7.86974       -0.61627
C         -0.87293       -8.44412       -0.71684
C         -1.99799       -7.64313       -0.53700
C          1.84368       -5.85656       -0.25874
O          2.85411       -6.45328       -0.62912
N          2.72414        4.28597       -0.45408
C          3.59901        3.17580       -0.29713
C          4.26650        2.95439        0.91701
C          5.01249        1.77553        1.06095
C          5.09700        0.81516        0.05157
C          4.41764        1.07393       -1.14630
C          3.68396        2.24192       -1.34767
C          5.89559       -0.49353        0.21476
C          6.73852       -0.49004        1.51233
C          7.61677       -1.74025        1.64467
C          8.57475       -1.87137        0.45593
C          7.79884       -1.84868       -0.86533
C          6.90611       -0.60569       -0.96143
C          4.87982       -1.65278        0.21522
C          4.27244       -2.08203        1.40186
C          3.29306       -3.07708        1.41796
C          2.89316       -3.65124        0.19996
C          3.48739       -3.25854       -1.00961
C          4.47830       -2.27267       -0.97062
C          2.66191       -3.52139        2.71301
N          1.81377       -4.57754        0.20718
C          3.06133       -3.85387       -2.32388
C          4.16453        3.92923        2.05873
C          3.00498        2.51121       -2.66581
H         -1.72064       -3.92811        0.42356
H         -0.89393        4.33807       -0.68720
H          0.90634       -4.23617        0.52388
H          1.73556        4.07279       -0.59802
C          0.16191        1.41801       -0.35011
C          1.20251        0.78002        0.47709
C          1.08459       -0.50719        0.84879
C         -0.08352       -1.31118        0.44880
C         -1.12109       -0.67351       -0.38034
C         -1.00507        0.61327       -0.74994
O          0.26710        2.59746       -0.71622
O         -0.19606       -2.49127        0.81321
H          2.05888        1.38818        0.75182
H         -1.97759       -1.28045       -0.65602
H          3.01692        8.28108       -0.21049
H          0.98295        9.78018       -0.08139
H         -1.29769        8.68715       -0.04837
H         -4.85774        2.47558        2.13322
H         -4.57832        1.49043       -2.03774
H         -7.11718        1.86403        1.59183
H         -5.99787        0.80513        2.43505
H         -7.33050       -1.19200        1.74691
H         -8.27842       -0.04976        2.69897
H         -9.30632        0.87241        0.63590
H         -9.56025       -0.87347        0.69022
H         -7.67436       -1.24647       -0.85268
H         -8.78534       -0.09208       -1.58600
H         -6.46145        0.68811       -1.87168
H         -7.35851        1.80661       -0.86812
H         -4.45168       -0.44654        2.28026
H         -5.51859       -1.12380       -1.82221
H         -3.27719       -3.68932        2.92142
H         -1.88597       -2.68025        2.54222
H         -3.22541       -2.00566        3.49089
H         -4.51453       -2.79628       -3.06672
H         -3.10535       -3.66808       -2.42015
H         -4.72030       -4.31305       -2.15301
H         -3.34848        3.92965        3.13438
H         -3.35778        5.42214        2.16211
H         -1.89410        4.44797        2.25193
H         -3.19581        2.69891       -3.48273
H         -2.83854        4.37446       -3.01060
H         -1.63592        3.11792       -2.74402
H          1.30520       -8.43104       -0.77695
H         -0.98068       -9.49982       -0.94860
H         -3.00960       -8.02209       -0.63227
H          5.51997        1.61691        2.00697
H          4.45348        0.34738       -1.95303
H          7.38064        0.40029        1.48992
H          6.10014       -0.38766        2.39569
H          6.97844       -2.63105        1.69890
H          8.17927       -1.69203        2.58473
H          9.28741       -1.03497        0.47271
H          9.16157       -2.79357        0.53806
H          7.17885       -2.75099       -0.93773
H          8.49062       -1.86607       -1.71576
H          6.38469       -0.58512       -1.92286
H          7.52794        0.29819       -0.93454
H          4.55921       -1.63837        2.35081
H          4.92938       -1.98033       -1.91390
H          2.73612       -4.60801        2.83010
H          1.59459       -3.26910        2.74341
H          3.15257       -3.04379        3.56546
H          3.44769       -3.26077       -3.15698
H          3.42754       -4.88195       -2.41869
H          1.96890       -3.89617       -2.39984
H          4.52968        3.47647        2.98446
H          3.12697        4.24808        2.20985
H          4.74682        4.83241        1.84830
H          1.91763        2.58356       -2.55574
H          3.34552        3.46396       -3.08579
H          3.22627        1.71494       -3.38175
H          1.84486       -1.00868        1.43679
H         -1.76505        1.11411       -1.33764
