%MEM=12GB
%nprocs=6
#p pbepbe aug-cc-pvtz Int(Grid=UltraFine) units=au output=wfx

5_COMPLEX1 

0 1
C         5.156467136     3.556411224   -13.995297266 
C         5.399450199     1.439993456   -15.541365329 
C         4.907998771    -0.943315967   -14.538471735 
C         4.237818403    -1.121930707   -11.991137513 
N         4.051690930     0.902901334   -10.478236784 
C         4.469572510     3.196598437   -11.471967238 
C         3.583579309    -3.674701399   -10.894642463 
O         3.384048166    -5.556312507   -12.249088765 
C         4.056273737     5.471406714    -9.801135261 
O         4.130163805     7.632988512   -10.659043708 
N         3.224384983    -3.633908594    -8.350298653 
C         2.304301581    -5.665241192    -6.850609455 
C        -0.135268656    -6.629545852    -7.238637087 
C        -1.048057348    -8.456049851    -5.554213183 
C         0.373393203    -9.326157303    -3.507263264 
C         2.816638100    -8.350693635    -3.209344832 
C         3.816505872    -6.549151428    -4.853360294 
C        -0.701326052   -11.205757285    -1.558743665 
C        -3.098057969   -12.546975419    -2.568895943 
C        -4.114578881   -14.544758363    -0.732672056 
C        -2.121679130   -16.570093444    -0.179039918 
C         0.314884667   -15.345729391     0.792391339 
C         1.271726510   -13.315310731    -1.041474585 
C        -1.305055204    -9.653284775     0.833678156 
C        -3.599256768    -8.354342854     1.062257683 
C        -4.163769905    -6.846467795     3.155905655 
C        -2.335262172    -6.581512819     5.070923092 
C        -0.006212809    -7.850933073     4.904562269 
C         0.446389098    -9.373746294     2.791183102 
C        -6.672906844    -5.514809569     3.366260437 
N        -2.823910166    -4.874966885     7.085519749 
C        -2.863832660    -5.491674665     9.584046717 
O        -2.690453451    -7.653696556    10.425727061 
C         1.987950059    -7.552061533     6.907856213 
C        -1.776426648    -5.688065468    -9.361087921 
C         6.445573688    -5.519419254    -4.478402329 
C        -3.097775756    -3.237718228    11.314929228 
N        -2.942600653    -0.929252345    10.280989616 
C        -2.971738399     1.086447413    11.816962358 
C        -3.223371728     0.881288509    14.436992950 
C        -3.444163223    -1.520294900    15.491013425 
C        -3.355834584    -3.625500978    13.913267476 
C        -2.589872025     3.660937968    10.647425612 
O        -2.257407067     5.549570718    11.965601963 
N         3.565447427     4.873037812    -7.347126913 
C         2.784394757     6.599775918    -5.444539062 
C         0.513256052     7.951181270    -5.692925657 
C        -0.270474967     9.481523167    -3.679403142 
C         1.098703665     9.676994036    -1.432257894 
C         3.356117113     8.302510747    -1.252097843 
C         4.246446849     6.794181010    -3.226013328 
C         0.186155191    11.279061939     0.822278238 
C        -2.036985595    13.024459700     0.071911319 
C        -2.861268020    14.762449785     2.239059694 
C        -0.670477114    16.433400567     3.129516694 
C         1.613145810    14.806986599     3.852736968 
C         2.370824744    13.042605243     1.681923995 
C        -0.605593425     9.406538449     2.909607452 
C        -3.034494017     8.358083161     2.942560341 
C        -3.751658947     6.526348226     4.700418862 
C        -1.961660335     5.688314607     6.472868439 
C         0.481580710     6.724513533     6.531162243 
C         1.100342358     8.575485164     4.747325566 
C        -6.378342988     5.426401162     4.678172211 
N        -2.609862685     3.633104417     8.077343827 
C         2.424677158     5.836356547     8.407320749 
C        -1.091981507     7.731735614    -8.028475744 
C         6.710985072     5.383031712    -2.996484231 
H        -3.086855787    -3.013464158     6.622256286 
H         3.506055297    -1.949390294    -7.444949745 
H        -2.988263475     1.945731807     7.214140075 
H         3.648373800     3.002746742    -6.852708529 
C         1.526450235     0.147447769    -2.465058698 
N         0.646283425     2.249593362    -1.354848809 
C        -0.981359316     2.398970475     0.857546028 
C        -1.640824593    -0.120253764     2.034325957 
N        -0.785044746    -2.220886479     0.903737233 
C         0.714464591    -2.373718885    -1.397004570 
O         2.973733586     0.201629423    -4.312336691 
O        -2.956951216    -0.175319341     3.978565738 
H         1.268024957     3.921415292    -2.095567708 
H        -1.301072640    -3.891197034     1.723991020 
H         5.456057073     5.466517627   -14.674360910 
H         5.938315293     1.648166507   -17.510993348 
H         5.006019861    -2.658600701   -15.655592786 
H        -2.946098273    -9.167246847    -5.865972297 
H         3.983805388    -8.976349335    -1.639830921 
H        -2.597914477   -13.451877571    -4.368026500 
H        -4.589497430   -11.181492379    -2.999112112 
H        -4.677092791   -13.626325454     1.040746525 
H        -5.820358231   -15.406941362    -1.532783975 
H        -1.713878867   -17.623722983    -1.922620343 
H        -2.843132384   -17.937076989     1.200174574 
H        -0.042244222   -14.492792994     2.648632439 
H         1.789442060   -16.776974634     1.059898891 
H         3.046166855   -12.514803064    -0.346556203 
H         1.716239443   -14.186352770    -2.871135079 
H        -5.015023221    -8.505107603    -0.415091523 
H         2.254636605   -10.338227414     2.691372791 
H        -7.615269189    -6.017675180     5.139609514 
H        -6.435810274    -3.457226462     3.368915327 
H        -7.904150686    -6.035169195     1.791279881 
H         3.807376376    -8.261476897     6.233177240 
H         2.204999277    -5.563540123     7.444110876 
H         1.454942889    -8.583749563     8.621157272 
H        -3.730068875    -6.308514347    -9.101248272 
H        -1.083368546    -6.389139932   -11.181159032 
H        -1.743142011    -3.619358945    -9.460673578 
H         7.403814035    -6.510548817    -2.939206196 
H         7.570302119    -5.732095527    -6.203102842 
H         6.401425003    -3.495226116    -4.035176042 
H        -3.217051171     2.591605814    15.565931596 
H        -3.653324482    -1.750151586    17.519961217 
H        -3.457471415    -5.546223100    14.620369914 
H        -2.032334949    10.506932591    -3.900715474 
H         4.468760844     8.389317246     0.471363094 
H        -1.414898001    14.179780793    -1.535920193 
H        -3.655663707    11.922496012    -0.594080959 
H        -3.540874442    13.610371846     3.824618106 
H        -4.454067112    15.931012579     1.614154358 
H        -0.132624927    17.729700541     1.597385034 
H        -1.260378490    17.604008982     4.733545884 
H         1.147697745    13.680785009     5.530592925 
H         3.226121345    16.006034172     4.357588522 
H         4.041553148    11.943162515     2.205604891 
H         2.923088276    14.169806517     0.030000928 
H        -4.428806406     8.954883022     1.559671663 
H         2.999970431     9.349108400     4.807933278 
H        -7.258816049     5.590523587     6.544397449 
H        -6.338677078     3.410001561     4.203318942 
H        -7.565733049     6.405740614     3.299321190 
H         4.305556559     6.509580603     7.879607992 
H         1.970355084     6.524909538    10.305658048 
H         2.463943506     3.767949975     8.510641695 
H        -2.979225229     8.500586152    -7.687611884 
H        -1.274345372     5.754651710    -8.617100370 
H        -0.222084446     8.752248357    -9.605229687 
H         6.421008704     3.334625441    -3.090706628 
H         7.981287439     5.885138512    -4.552229340 
H         7.642096150     5.836721044    -1.209064724 
H        -2.759288554     3.340351798     0.368905704 
H        -0.080750150     3.565480145     2.310831323 
H         2.425218665    -3.473851142    -1.034282510 
H        -0.329019719    -3.390908704    -2.870930580 

5_COMPLEX1.wfx

