144
5_COMPLEX1.log	Energy: -2066341.9422142
C          0.61852        8.04750       -0.23854
C         -0.62393        8.67561       -0.19376
C         -1.77823        7.89621       -0.18876
C         -1.64369        6.50735       -0.25753
N         -0.45153        5.89711       -0.32903
C          0.65630        6.65252       -0.30159
C         -2.87910        5.64089       -0.19123
O         -3.98536        6.12246        0.05489
C          1.99128        5.94843       -0.27447
O          3.03981        6.56981       -0.09969
N         -2.62788        4.32213       -0.40845
C         -3.55687        3.25671       -0.25286
C         -4.11543        2.97533        1.00331
C         -4.92070        1.83663        1.13352
C         -5.17475        0.97438        0.06436
C         -4.61860        1.30208       -1.17912
C         -3.82191        2.43259       -1.36045
C         -5.98487       -0.32612        0.23279
C         -6.79646       -0.32338        1.55164
C         -7.67796       -1.56871        1.70416
C         -8.66597       -1.69479        0.54029
C         -7.91849       -1.68178       -0.79674
C         -7.02027       -0.44445       -0.91838
C         -4.96184       -1.48064        0.21673
C         -4.28328       -1.85330        1.38363
C         -3.31052       -2.85682        1.39314
C         -2.98172       -3.49185        0.18009
C         -3.63891       -3.14200       -1.01310
C         -4.62220       -2.14795       -0.96364
C         -2.61838       -3.25224        2.67242
N         -1.91203       -4.42704        0.17088
C         -2.00496       -5.72737       -0.22356
O         -3.05312       -6.30093       -0.52043
C         -3.28296       -3.79137       -2.32231
C         -3.83294        3.84580        2.19763
C         -3.22885        2.75650       -2.70776
C         -0.67383       -6.43421       -0.29702
N          0.43580       -5.69984       -0.13031
C          1.62664       -6.29705       -0.28490
C          1.75752       -7.65695       -0.57701
C          0.60065       -8.41975       -0.71712
C         -0.64016       -7.79984       -0.58901
C          2.86439       -5.43628       -0.20165
O          3.97210       -5.87784       -0.50883
N          1.90004        4.59924       -0.43398
C          2.96755        3.67437       -0.27748
C          3.62997        3.54689        0.95461
C          4.60526        2.54983        1.08801
C          4.92440        1.66996        0.05182
C          4.24359        1.82718       -1.16346
C          3.28429        2.82358       -1.35602
C          5.95805        0.53847        0.21485
C          6.78023        0.70156        1.51569
C          7.87746       -0.36079        1.65281
C          8.84819       -0.30924        0.46835
C          8.08604       -0.43902       -0.85445
C          6.97416        0.61219       -0.95837
C          5.16671       -0.78488        0.21910
C          4.60294       -1.28088        1.40076
C          3.80331       -2.42504        1.42063
C          3.54393       -3.08887        0.20997
C          4.10979       -2.63694       -0.99369
C          4.91624       -1.49407       -0.95919
C          3.20599       -2.92980        2.70881
N          2.61438       -4.16464        0.21119
C          3.83508       -3.33192       -2.29960
C          3.28826        4.43069        2.12281
C          2.59063        2.98648       -2.68477
H         -0.98658       -4.08141        0.44272
H         -1.66476        4.06026       -0.63246
H          1.65282       -3.93951        0.47724
H          0.97135        4.20841       -0.62028
C         -0.13268        1.44463       -0.34205
N          1.05707        0.92940        0.00230
C          1.32382       -0.41928        0.48048
C          0.11320       -1.32363        0.53800
N         -1.07783       -0.80207        0.20919
C         -1.35555        0.56961       -0.19065
O         -0.26143        2.60009       -0.77942
O          0.25147       -2.50625        0.89398
H          1.86570        1.53919       -0.13498
H         -1.87750       -1.43424        0.28075
H          1.55427        8.59501       -0.21462
H         -0.69127        9.75876       -0.14850
H         -2.77358        8.32181       -0.12396
H         -5.33582        1.62592        2.11380
H         -4.79112        0.65689       -2.03636
H         -7.42857        0.57451        1.54986
H         -6.13680       -0.23385        2.41979
H         -7.04168       -2.46271        1.74191
H         -8.21487       -1.51859        2.65886
H         -9.37128       -0.85197        0.57100
H         -9.25811       -2.61209        0.63841
H         -7.30703       -2.58944       -0.87787
H         -8.62747       -1.69873       -1.63316
H         -6.52456       -0.43647       -1.89336
H         -7.63800        0.46252       -0.88612
H         -4.50902       -1.35970        2.32396
H         -5.11876       -1.88912       -1.89387
H         -2.72597       -4.32774        2.85086
H         -1.54388       -3.04108        2.62602
H         -3.04412       -2.71174        3.52187
H         -3.69914       -3.22345       -3.15875
H         -2.19576       -3.85446       -2.44490
H         -3.66820       -4.81597       -2.35967
H         -4.14890        3.34977        3.11938
H         -4.35912        4.80240        2.10918
H         -2.76372        4.07592        2.27042
H         -3.59636        2.06179       -3.46799
H         -3.48816        3.77654       -3.01133
H         -2.13378        2.70064       -2.68280
H          2.75224       -8.07205       -0.69644
H          0.66489       -9.48117       -0.93866
H         -1.57721       -8.33032       -0.71749
H          5.10456        2.46321        2.04749
H          4.45599        1.15707       -1.99195
H          7.24030        1.69855        1.49600
H          6.13138        0.67872        2.39684
H          7.41656       -1.35569        1.70511
H          8.41582       -0.20750        2.59560
H          9.38795        0.64852        0.48427
H          9.60014       -1.10210        0.55553
H          7.64887       -1.44315       -0.92368
H          8.77068       -0.32880       -1.70395
H          6.46320        0.52760       -1.92207
H          7.41495        1.61747       -0.93695
H          4.77560       -0.76743        2.34214
H          5.34091       -1.15300       -1.89858
H          3.45500       -3.98498        2.86529
H          2.11204       -2.85828        2.69136
H          3.58011       -2.35264        3.55893
H          4.15340       -2.71000       -3.14070
H          4.36391       -4.29006       -2.34422
H          2.76696       -3.55219       -2.40953
H          3.70428        4.02278        3.04801
H          2.20251        4.52635        2.23656
H          3.68300        5.44069        1.96852
H          1.51209        2.81310       -2.59700
H          2.72051        4.00654       -3.06272
H          2.99856        2.28647       -3.41869
H          1.75471       -0.38275        1.48706
H          2.07236       -0.89776       -0.16010
H         -1.88127        0.57139       -1.14926
H         -2.02937        1.04800        0.53053
