%MEM=12GB
%nprocs=6
#p pbepbe aug-cc-pvtz Int(Grid=UltraFine) units=au output=wfx

5_COMPLEX2 

0 1
C         5.146676713     3.540044930   -14.143715236 
C         5.321020490     1.400531560   -15.666461648 
C         4.821821336    -0.961336738   -14.619410663 
C         4.215041643    -1.098323431   -12.054180665 
N         4.092117957     0.950055861   -10.564146089 
C         4.514481591     3.226390397   -11.601118006 
C         3.549002303    -3.633233602   -10.918377122 
O         3.272850140    -5.518843970   -12.251648081 
C         4.160054178     5.539152319    -9.960456432 
O         4.309240510     7.685463033   -10.843638842 
N         3.267060305    -3.571925765    -8.361563503 
C         2.321171105    -5.560632257    -6.817482262 
C        -0.143348918    -6.471495495    -7.157134172 
C        -1.051649513    -8.295180677    -5.469886946 
C         0.387791245    -9.201678816    -3.454274905 
C         2.848451423    -8.260929129    -3.187987934 
C         3.852924318    -6.478611077    -4.850808768 
C        -0.680672917   -11.097304785    -1.518531862 
C        -3.086155323   -12.418575791    -2.539677914 
C        -4.087928161   -14.456729494    -0.742385355 
C        -2.096443772   -16.504352155    -0.276199399 
C         0.344065750   -15.312636644     0.722312943 
C         1.294204698   -13.213356144    -1.038612116 
C        -1.298971089    -9.581092929     0.893253674 
C        -3.506926372    -8.128941477     1.026268083 
C        -4.118205233    -6.684670722     3.144020147 
C        -2.423966872    -6.641100919     5.192799452 
C        -0.180306954    -8.057836123     5.127167972 
C         0.323237512    -9.510937983     2.973171356 
C        -6.557153805    -5.218357184     3.255688954 
N        -2.927015538    -4.956689595     7.223696865 
C        -3.073911630    -5.556360645     9.722615885 
O        -3.048971878    -7.712841019    10.592057491 
C         1.693190543    -7.982243720     7.264182375 
C        -1.809640910    -5.491441200    -9.241777119 
C         6.522607534    -5.529036611    -4.549609478 
C        -3.219490551    -3.267085415    11.424363992 
N        -2.999272104    -0.974499152    10.362453805 
C        -2.938067368     1.058273570    11.877577765 
C        -3.153274431     0.888017794    14.502761665 
C        -3.446343157    -1.492253265    15.585156144 
C        -3.459501250    -3.614935298    14.029262228 
C        -2.496718982     3.612848517    10.681082225 
O        -2.040200692     5.491105858    11.973825758 
N         3.626253893     4.967311612    -7.510613156 
C         2.829740223     6.666691262    -5.587025234 
C         0.600138736     8.075391552    -5.860546268 
C        -0.226934631     9.532101803    -3.806786857 
C         1.065114706     9.598709872    -1.508162082 
C         3.284822900     8.168507102    -1.311262050 
C         4.210782542     6.728516079    -3.313199251 
C         0.137220072    11.160509556     0.769647651 
C        -2.095758833    12.903672281     0.044972238 
C        -2.925737970    14.610410777     2.235148640 
C        -0.741498730    16.279871608     3.144509886 
C         1.556903983    14.659557257     3.835732625 
C         2.315818925    12.929991062     1.638230086 
C        -0.634287578     9.277348669     2.853410723 
C        -3.085135982     8.284428566     2.959685617 
C        -3.788704746     6.467154874     4.738611063 
C        -1.963981521     5.584788365     6.452637021 
C         0.506169412     6.551211870     6.425039971 
C         1.106766041     8.397016741     4.631984757 
C        -6.446131210     5.442668239     4.811243972 
N        -2.625298188     3.575960213     8.111581179 
C         2.489290427     5.608720294     8.230890493 
C        -0.924316592     7.991119827    -8.259441438 
C         6.653041781     5.284490170    -3.068030849 
H        -3.081308933    -3.081741234     6.788543047 
H         3.636146232    -1.884724267    -7.504790142 
H        -3.115225370     1.892717056     7.310671273 
H         3.646491930     3.091938822    -7.053646630 
C         1.526355181     0.227718936    -2.413349009 
C        -0.193639496     2.305832032    -1.715436191 
C        -1.596326504     2.163368040     0.399305052 
C        -1.466625246    -0.064420676     2.064391017 
C         0.257057406    -2.137040402     1.368172496 
C         1.655495397    -1.997898439    -0.746989626 
O         2.857258614     0.349837138    -4.336800070 
O        -2.795707767    -0.200603229     3.989884761 
H        -0.244924770     3.936351177    -2.959615614 
H         0.310712567    -3.767955854     2.610666166 
H         5.454156896     5.436900893   -14.855930629 
H         5.811970157     1.574714837   -17.651268078 
H         4.865279396    -2.691741652   -15.715889975 
H        -2.965301272    -8.973779495    -5.753066264 
H         4.031321730    -8.913297367    -1.640442597 
H        -2.605870126   -13.281718550    -4.365480421 
H        -4.580224969   -11.041532915    -2.916073951 
H        -4.617781579   -13.580430181     1.062460704 
H        -5.809816473   -15.287123852    -1.539671487 
H        -1.703486955   -17.495558328    -2.059479150 
H        -2.807156922   -17.919312336     1.059500838 
H        -0.007466462   -14.535192891     2.611329516 
H         1.823274982   -16.749304434     0.928169803 
H         3.055595897   -12.422484839    -0.300864814 
H         1.763716842   -14.026504727    -2.888505562 
H        -4.812771317    -8.109154105    -0.557126438 
H         2.069017260   -10.588066730     2.950111380 
H        -7.636107303    -5.727950342     4.947858243 
H        -6.220704485    -3.177422412     3.350101580 
H        -7.715295804    -5.609812149     1.590722518 
H         3.498511841    -8.795345855     6.673359568 
H         2.018046538    -6.037020288     7.897433903 
H         0.980659783    -9.032898784     8.898710625 
H        -3.773412215    -6.049598875    -8.924854028 
H        -1.189738380    -6.223876749   -11.075436084 
H        -1.717921254    -3.425866259    -9.354854301 
H         7.476785739    -6.510964656    -3.002335871 
H         7.605460604    -5.828028516    -6.287831036 
H         6.569510886    -3.493526373    -4.158571446 
H        -3.066427068     2.607789134    15.613496539 
H        -3.631542681    -1.693456304    17.619468015 
H        -3.622300258    -5.523349204    14.758072995 
H        -1.957939282    10.605560252    -4.045109306 
H         4.336521293     8.160812383     0.451587696 
H        -1.480242027    14.087102747    -1.544226138 
H        -3.707193371    11.801556414    -0.639091607 
H        -3.598376553    13.437906719     3.807429197 
H        -4.523807122    15.781148375     1.627248876 
H        -0.218139555    17.602463835     1.631348391 
H        -1.333234279    17.421926685     4.768211413 
H         1.108167270    13.506948562     5.499755289 
H         3.162971797    15.863894486     4.348417103 
H         3.995787496    11.832278689     2.134239342 
H         2.847638358    14.080631732    -0.003184107 
H        -4.511858065     8.925219387     1.630688436 
H         3.023849758     9.127815106     4.635469847 
H        -7.254859814     5.626779197     6.707873211 
H        -6.489515366     3.426479493     4.329854950 
H        -7.655321082     6.455589674     3.476662151 
H         4.368033386     6.222132493     7.629324522 
H         2.130374320     6.316755615    10.142783019 
H         2.469921583     3.540784865     8.340520761 
H        -2.800320173     8.801959335    -7.956647599 
H        -1.144385377     6.043474530    -8.928211890 
H         0.029780044     9.039093230    -9.767210343 
H         6.363227410     3.244986737    -3.269334917 
H         7.982938830     5.850394078    -4.550181362 
H         7.524785457     5.639216148    -1.228553710 
H        -2.843241419     3.680691569     0.982199269 
H         2.901542684    -3.514631395    -1.328876117 

5_COMPLEX2.wfx

