%MEM=12GB
%nprocs=6
#p pbepbe aug-cc-pvtz Int(Grid=UltraFine) units=au output=wfx

5_HOST 

0 1
C         5.567258984     3.513654534   -13.872797485 
C         5.972777918     1.368305211   -15.342318810 
C         5.372679570    -0.995797489   -14.353751864 
C         4.398519162    -1.126121953   -11.904763962 
N         4.026711933     0.932528111   -10.468551917 
C         4.585706143     3.208082170   -11.442465976 
C         3.694615618    -3.671511684   -10.819014395 
O         3.944524102    -5.626746793   -12.046512283 
C         4.092297957     5.518246876    -9.838426482 
O         4.523176335     7.659394601   -10.627090869 
N         2.777895968    -3.509205079    -8.415730066 
C         1.917259468    -5.512933913    -6.847782184 
C        -0.074476075    -7.083771411    -7.613597469 
C        -0.930927628    -8.928668460    -5.916333185 
C         0.106902824    -9.221936539    -3.511837547 
C         2.096054919    -7.618117360    -2.818962532 
C         3.024758122    -5.770729913    -4.442036822 
C        -0.858162679   -11.170094544    -1.581665164 
C        -3.327918270   -12.459984911    -2.473194130 
C        -4.180728761   -14.556080470    -0.669100160 
C        -2.162701582   -16.626632854    -0.508239904 
C         0.363950078   -15.506440195     0.356430415 
C         1.177119197   -13.266856354    -1.305109983 
H        -1.934674775   -17.498435237    -2.380627751 
H        -2.757502845   -18.127791541     0.789788319 
C        -1.334715890    -9.698053071     0.878154028 
C        -3.232135206    -7.851916703     0.906117691 
C        -3.644386438    -6.304735399     2.991726306 
C        -2.099146801    -6.613951909     5.135387755 
C        -0.167948770    -8.427448988     5.177808564 
C         0.163973731    -9.942294425     3.031708590 
C        -5.686178972    -4.317544570     2.953901911 
N        -2.457379645    -4.933522228     7.199078245 
C        -2.933436751    -5.550466776     9.656169863 
O        -3.156147394    -7.705469574    10.491506632 
C         1.579890004    -8.708925435     7.402444013 
C        -1.350265430    -6.766150500   -10.134776845 
C         5.154353437    -4.058109122    -3.635420203 
C        -3.157618679    -3.261616035    11.347295765 
N        -2.831930961    -0.969493974    10.308511260 
C        -2.954978227     1.070908777    11.812091466 
C        -3.442012040     0.904955953    14.400327233 
C        -3.806682667    -1.476545862    15.459427806 
C        -3.653598861    -3.603103487    13.916537635 
C        -2.505257504     3.635302011    10.641138751 
O        -2.528664853     5.575279119    11.916792814 
N         3.139191038     4.933131893    -7.516315263 
C         2.448101007     6.630073705    -5.552554808 
C         0.612785880     8.499420576    -5.949816024 
C        -0.087252842    10.016352203    -3.894009016 
C         0.954121220     9.704513605    -1.493416408 
C         2.784474733     7.818499040    -1.174372526 
C         3.554807178     6.276382463    -3.158741616 
C         0.154713824    11.284181176     0.812341641 
C        -2.178102620    12.952697585     0.237243181 
C        -2.851906270    14.691866545     2.450403225 
C        -0.653648189    16.488045625     3.022798207 
C         1.752099242    14.984665023     3.605275030 
C         2.371124045    13.081079928     1.500441357 
H        -0.329342837    17.710102845     1.373641440 
H        -1.120361396    17.730227806     4.613787258 
C        -0.474987820     9.378960925     2.914063060 
C        -2.537413467     7.753399023     2.579038382 
C        -3.105395989     5.846092943     4.297340346 
C        -1.549834263     5.549911390     6.435312374 
C         0.543069954     7.125394471     6.831426587 
C         1.027991596     9.021961585     5.048826197 
C        -5.325423362     4.111464996     3.871601216 
N        -2.075974854     3.511685644     8.102367745 
C         2.297611628     6.765672850     9.039348172 
C        -0.664602822     8.835575220    -8.467728318 
C         5.514283200     4.248137123    -2.752935698 
H        -2.534495087    -3.045004196     6.853591548 
H         2.907636115    -1.744092244    -7.667388915 
H        -4.390060046    -7.566310273    -0.766639469 
H         1.701426683   -11.298701252     3.065143479 
H        -2.498094231   -10.108446089    -6.514872873 
H         2.914909283    -7.784015074    -0.941478984 
H        -6.910458547    -4.464326225     4.617190156 
H        -6.850675668    -4.505426688     1.258740796 
H        -4.890120992    -2.399968295     2.950440945 
H         2.170082966    -6.858197653     8.120914871 
H         3.265577712    -9.775712655     6.863039287 
H         0.633917445    -9.685724644     8.962239311 
H         6.661643420    -4.009925749    -5.053944095 
H         5.955538107    -4.693702419    -1.841115202 
H         4.507686061    -2.103370284    -3.367441755 
H        -1.681708464    -4.764048466   -10.549998186 
H        -3.166194150    -7.752099759   -10.152173411 
H        -0.163704545    -7.507183579   -11.659457059 
H        -4.823750068   -11.049851943    -2.714424101 
H        -2.987953307   -13.303509089    -4.337944748 
H        -4.519593489   -13.759007564     1.216705896 
H        -5.978823997   -15.347861133    -1.326850599 
H         0.173272695   -14.901207659     2.327954068 
H         1.849556082   -16.951389667     0.313989074 
H         1.583231149   -13.957753225    -3.218448613 
H         2.945025489   -12.441908478    -0.607823281 
H        -3.893942037    -5.510055804    14.626509747 
H        -4.192180994    -1.673677621    17.465648507 
H         5.622126615    -2.735872270   -15.406538754 
H         6.736351022     1.537721524   -17.239874917 
H        -2.329235791     1.754931779     7.366360587 
H         3.107649317     3.045522322    -7.157768745 
H        -3.707281896     7.936208454     0.900101653 
H         2.686618343    10.190611471     5.344883838 
H        -1.537415458    11.430992652    -4.214102425 
H         3.600183367     7.512427388     0.686817678 
H        -6.539629853     4.018405964     5.546067484 
H        -6.457087973     4.760353250     2.270828810 
H        -4.714099234     2.171696573     3.453680508 
H         2.706273053     4.757939620     9.342706768 
H         4.079678868     7.759503645     8.711982541 
H         1.440312481     7.475192014    10.783980522 
H         7.021690634     4.361999582    -4.167525189 
H         6.355945882     4.419055722    -0.874816130 
H         4.690762423     2.347255167    -2.892327875 
H        -1.169746646     7.003795051    -9.292408281 
H        -2.385147108     9.960670950    -8.257878416 
H         0.596366191     9.773239035    -9.814051061 
H        -3.794615535    11.767888658    -0.279824323 
H        -1.744996886    14.134580199    -1.412052127 
H        -3.280762229    13.550673385     4.129610163 
H        -4.562910811    15.766249357     1.991594390 
H         1.489634154    13.997067593     5.406593290 
H         3.363945374    16.264560709     3.852374078 
H         2.854173723    14.119708995    -0.229063103 
H         4.050440006    11.970364755     1.988230684 
H        -3.511594545     2.632172560    15.500517400 
H         5.973649352     5.408612827   -14.537808257 

5_HOST.wfx

