%MEM=12GB
%nprocs=6
#p pbepbe aug-cc-pvtz Int(Grid=UltraFine) units=au output=wfx

5_MONOMER1 

0 1
C        -0.003348685     2.786179170    -0.186011090 
N        -2.171034343     1.411271136    -0.331138121 
C        -2.415487663    -1.278323070     0.228171400 
C         0.003348685    -2.786179170    -0.186011090 
N         2.171034343    -1.411271136    -0.331138121 
C         2.415487663     1.278323070     0.228171400 
O         0.060878309     5.093855171    -0.371822553 
O        -0.060878309    -5.093855171    -0.371822553 
H        -3.771296743     2.449162653    -0.529811318 
H         3.771296743    -2.449162653    -0.529811318 
H        -3.850184669    -2.109272778    -1.001901380 
H        -3.017570434    -1.594414437     2.192513062 
H         3.850184669     2.109272778    -1.001901380 
H         3.017570434     1.594414437     2.192513062 

5_MONOMER1.wfx

