%MEM=12GB
%nprocs=6
#p pbepbe aug-cc-pvtz Int(Grid=UltraFine) units=au output=wfx

5_MONOMER2 

0 1
C         0.000000000     2.721604120     0.000000000 
C        -2.393098982     1.270418289     0.000000000 
C        -2.393098982    -1.270418289     0.000000000 
C         0.000000000    -2.721604120     0.000000000 
C         2.393098982    -1.270418289     0.000000000 
C         2.393098982     1.270418289     0.000000000 
O         0.000000000     5.047549538     0.000000000 
O         0.000000000    -5.047549538     0.000000000 
H        -4.119772670     2.381851003     0.000000000 
H        -4.119772670    -2.381851003     0.000000000 
H         4.119772670    -2.381851003     0.000000000 
H         4.119772670     2.381851003     0.000000000 

5_MONOMER2.wfx

