12
5_MONOMER2.log	Energy: -239392.3370054
C          0.00000        1.44021        0.00000
C         -1.26637        0.67228        0.00000
C         -1.26637       -0.67228        0.00000
C          0.00000       -1.44021        0.00000
C          1.26637       -0.67228        0.00000
C          1.26637        0.67228        0.00000
O          0.00000        2.67105        0.00000
O          0.00000       -2.67105        0.00000
H         -2.18009        1.26042        0.00000
H         -2.18009       -1.26042        0.00000
H          2.18009       -1.26042        0.00000
H          2.18009        1.26042        0.00000
