%MEM=12GB
%nprocs=6
#p pbepbe aug-cc-pvtz Int(Grid=UltraFine) units=au output=wfx

6_COMPLEX2 

1 1
O        -0.036454803    -6.166848298    -6.937896389 
O        -0.008954295     5.312246451    -5.976346103 
O        -5.673673063    -6.014029449    -3.354447777 
O        -5.639756219     5.483957518    -3.139333032 
O         5.542663191    -6.217217525     3.441761702 
O         6.073156315     5.373456563     3.079072000 
O         5.542663191    -6.217217525    -3.441761702 
O         6.073156315     5.373456563    -3.079072000 
O        -5.673673063    -6.014029449     3.354447777 
O        -0.008954295     5.312246451     5.976346103 
O        -0.036454803    -6.166848298     6.937896389 
O        -5.639756219     5.483957518     3.139333032 
N        -1.302101969     5.894333503     0.000000000 
N        -2.085916547     2.097785782    -8.134131635 
N         2.124043343     2.039452804    -8.005698742 
N        -6.110138365    -2.526851184     6.003485417 
N         2.120624991    -2.590980829    -8.334444872 
N        -8.170980302    -2.545124300     2.304499833 
N        -8.304248178     2.092934139     2.310691236 
N        -2.111211398    -2.534655528    -8.306135917 
N        -6.123639022     2.114481848     5.910630731 
N         2.120624991    -2.590980829     8.334444872 
N        -8.304248178     2.092934139    -2.310691236 
N        -6.123639022     2.114481848    -5.910630731 
N        -6.110138365    -2.526851184    -6.003485417 
N        -8.170980302    -2.545124300    -2.304499833 
N        -2.111211398    -2.534655528     8.306135917 
N         6.151252795    -2.742465432    -6.071857551 
N        -2.085916547     2.097785782     8.134131635 
N         8.061208084    -2.791771469    -2.297388639 
N         8.573125601     1.831902098    -2.314079437 
N         8.573125601     1.831902098     2.314079437 
N         6.131505452     1.889764767    -5.755766612 
N         2.124043343     2.039452804     8.005698742 
N         6.131505452     1.889764767     5.755766612 
N         6.151252795    -2.742465432     6.071857551 
N         8.061208084    -2.791771469     2.297388639 
C        -9.056539564    -0.266880667     3.510661748 
C         9.105843563    -0.573120594     3.513044681 
C         7.584580194    -0.425346342     6.050003668 
C         6.452346676    -4.160664550     3.871104178 
C         4.642159409    -3.658900994    -8.160707412 
C         4.652502693     3.054540392    -7.731687863 
C         6.827015986     3.270454353     3.633599192 
C         0.016466728     3.360187056     7.212060281 
C         6.827015986     3.270454353    -3.633599192 
C         6.452346676    -4.160664550    -3.871104178 
C         9.716886493     2.744952868     0.000000000 
C         9.042660872    -3.909767186     0.000000000 
C        -7.566162786    -0.225433267    -6.073063193 
C        -9.056539564    -0.266880667    -3.510661748 
C         7.584580194    -0.425346342    -6.050003668 
C        -6.521848189    -3.941319547    -3.819332939 
C         9.105843563    -0.573120594    -3.513044681 
C        -4.645317856    -3.538931516     8.091640270 
C        -6.570754402     3.436115328    -3.717605720 
C        -4.587610259     3.159235291     7.926687771 
C        -0.007258218    -4.021693353     7.733044065 
C         4.652502693     3.054540392     7.731687863 
C        -9.370877555     3.097748732     0.000000000 
C        -9.200563020    -3.607059114     0.000000000 
C         1.506949072    -0.193550394    -9.483850798 
C        -1.455070765    -0.181176874    -9.522717306 
C         4.642159409    -3.658900994     8.160707412 
C        -0.007258218    -4.021693353    -7.733044065 
C        -6.570754402     3.436115328     3.717605720 
C        -6.521848189    -3.941319547     3.819332939 
C         0.016466728     3.360187056    -7.212060281 
C        -7.566162786    -0.225433267     6.073063193 
C         1.506949072    -0.193550394     9.483850798 
C        -1.455070765    -0.181176874     9.522717306 
C        -4.587610259     3.159235291    -7.926687771 
C        -4.645317856    -3.538931516    -8.091640270 
C         0.495395209     3.674132089     0.000000000 
C        -0.923660844     1.168067280     0.000000000 
C         0.928591859    -1.059424407     0.000000000 
H        -0.072377185    -2.865601934     0.000000000 
H         1.672249086     3.898108795    -1.675357043 
H         4.391378297    -5.688737504     7.866878318 
H       -11.117973052    -0.304580108     3.747373222 
H        -8.791021636    -0.176968307     7.747361800 
H        -4.366451853     5.170331600     7.516609040 
H        -5.581665587     2.891530375     9.725439199 
H        -4.441473560    -5.566208723     7.744684234 
H        -5.677643928    -3.200469346     9.858966238 
H        11.152960261    -0.786875661    -3.787169086 
H         8.793289681    -0.300780551    -7.734029934 
H         5.639604302     2.859149403    -9.546985864 
H         4.458187357     5.047741158    -7.225338098 
H         5.656228815    -3.296533418    -9.932705468 
H         4.391378297    -5.688737504    -7.866878318 
H         8.793289681    -0.300780551     7.734029934 
H        11.152960261    -0.786875661     3.787169086 
H         9.490527815     4.797188689     0.000000000 
H        11.723697711     2.233672652     0.000000000 
H         8.443303940    -5.888246880     0.000000000 
H        11.115021325    -3.775046288     0.000000000 
H        -8.791021636    -0.176968307    -7.747361800 
H       -11.117973052    -0.304580108    -3.747373222 
H       -11.411938434     2.742065163     0.000000000 
H        -8.993062008     5.126985207     0.000000000 
H       -11.262391436    -3.371894188     0.000000000 
H        -8.696785130    -5.611863712     0.000000000 
H         2.362519873    -0.046670492   -11.369636955 
H        -2.261334338    -0.090010594   -11.433861810 
H        -4.366451853     5.170331600    -7.516609040 
H        -5.581665587     2.891530375    -9.725439199 
H        -4.441473560    -5.566208723    -7.744684234 
H        -5.677643928    -3.200469346    -9.858966238 
H         5.656228815    -3.296533418     9.932705468 
H         4.458187357     5.047741158     7.225338098 
H         5.639604302     2.859149403     9.546985864 
H         2.362519873    -0.046670492    11.369636955 
H        -2.261334338    -0.090010594    11.433861810 
H        -2.483581020     5.871932170     1.568835303 
H        -0.301023302     7.548086094     0.000000000 
H        -2.483581020     5.871932170    -1.568835303 
H         2.143822888    -1.004560447     1.673263027 
H         2.143822888    -1.004560447    -1.673263027 
H        -2.149657617     1.054885089     1.667642134 
H        -2.149657617     1.054885089    -1.667642134 
H         1.672249086     3.898108795     1.675357043 

6_COMPLEX2.wfx

