%MEM=12GB
%nprocs=6
#p pbepbe aug-cc-pvtz Int(Grid=UltraFine) units=au output=wfx

6_HOST 

0 1
C         9.544658989    -1.480668093     0.001703464 
C         9.544658989     1.480668093    -0.001703464 
N         8.131558340     2.114379766    -2.264304943 
C         7.630969102     0.003192141    -3.762192261 
N         8.389876213    -2.107668502    -2.389040494 
N         8.131558340    -2.114379766     2.264304943 
C         7.630969102    -0.003192141     3.762192261 
N         8.389876213     2.107668502     2.389040494 
O         6.781482712    -0.011134806     5.891619559 
O         6.781482712     0.011134806    -5.891619559 
C         8.023574101     4.636851755     3.349675244 
C         8.027418464     4.630193123    -3.349675244 
C         3.490033311    -9.006251202     0.001703464 
C         6.054625678    -7.525583108    -0.001703464 
N         5.896885761    -5.984946212    -2.264304943 
C         3.818249026    -6.607017027    -3.762192261 
N         2.369643641    -8.319680186    -2.389040494 
N         2.234672579    -8.099325978     2.264304943 
C         3.812720076    -6.610209168     3.762192261 
N         6.020232572    -6.212011684     2.389040494 
O         3.381098331    -5.878503707     5.891619559 
O         3.400384381    -5.867368901    -5.891619559 
C         8.027418464    -4.630193123     3.349675244 
C         8.023574101    -4.636851755    -3.349675244 
C        -3.490033311     9.006251202     0.001703464 
C        -6.054625678     7.525583108    -0.001703464 
N        -5.896885761     5.984946212    -2.264304943 
C        -3.818249026     6.607017027    -3.762192261 
N        -2.369643641     8.319680186    -2.389040494 
N        -2.234672579     8.099325978     2.264304943 
C        -3.812720076     6.610209168     3.762192261 
N        -6.020232572     6.212011684     2.389040494 
O        -3.381098331     5.878503707     5.891619559 
O        -3.400384381     5.867368901    -5.891619559 
C        -8.027418464     4.630193123     3.349675244 
C        -8.023574101     4.636851755    -3.349675244 
C         6.054625678     7.525583108     0.001703464 
C         3.490033311     9.006251202    -0.001703464 
N         2.234672579     8.099325978    -2.264304943 
C         3.812720076     6.610209168    -3.762192261 
N         6.020232572     6.212011684    -2.389040494 
N         5.896885761     5.984946212     2.264304943 
C         3.818249026     6.607017027     3.762192261 
N         2.369643641     8.319680186     2.389040494 
O         3.400384381     5.867368901     5.891619559 
O         3.381098331     5.878503707    -5.891619559 
C        -0.003844363     9.267044878     3.349675244 
C         0.003844363     9.267044878    -3.349675244 
C        -6.054625678    -7.525583108     0.001703464 
C        -3.490033311    -9.006251202    -0.001703464 
N        -2.234672579    -8.099325978    -2.264304943 
C        -3.812720076    -6.610209168    -3.762192261 
N        -6.020232572    -6.212011684    -2.389040494 
N        -5.896885761    -5.984946212     2.264304943 
C        -3.818249026    -6.607017027     3.762192261 
N        -2.369643641    -8.319680186     2.389040494 
O        -3.400384381    -5.867368901     5.891619559 
O        -3.381098331    -5.878503707    -5.891619559 
C         0.003844363    -9.267044878     3.349675244 
C        -0.003844363    -9.267044878    -3.349675244 
C        -9.544658989     1.480668093     0.001703464 
C        -9.544658989    -1.480668093    -0.001703464 
N        -8.131558340    -2.114379766    -2.264304943 
C        -7.630969102    -0.003192141    -3.762192261 
N        -8.389876213     2.107668502    -2.389040494 
N        -8.131558340     2.114379766     2.264304943 
C        -7.630969102     0.003192141     3.762192261 
N        -8.389876213    -2.107668502     2.389040494 
O        -6.781482712     0.011134806     5.891619559 
O        -6.781482712    -0.011134806    -5.891619559 
C        -8.023574101    -4.636851755     3.349675244 
C        -8.027418464    -4.630193123    -3.349675244 
H        11.452300954    -2.302646335     0.107811226 
H        11.452300954     2.302646335    -0.107811226 
H         9.757952783     5.735657616     3.035634936 
H         7.634645850     4.446826167     5.370670853 
H         9.846201594     5.582806190    -3.035634936 
H         7.668387352     4.388384171    -5.370670853 
H         3.732000255   -11.069306725     0.107811226 
H         7.720300698    -8.766660390    -0.107811226 
H         7.668387352    -4.388384171     5.370670853 
H         9.846201594    -5.582806190     3.035634936 
H         7.634645850    -4.446826167    -5.370670853 
H         9.757952783    -5.735657616    -3.035634936 
H        -3.732000255    11.069306725     0.107811226 
H        -7.720300698     8.766660390    -0.107811226 
H        -9.846201594     5.582806190     3.035634936 
H        -7.668387352     4.388384171     5.370670853 
H        -9.757952783     5.735657616    -3.035634936 
H        -7.634645850     4.446826167    -5.370670853 
H         7.720300698     8.766660390     0.107811226 
H         3.732000255    11.069306725    -0.107811226 
H        -0.033741502     8.835210338     5.370670853 
H        -0.088248812    11.318463807     3.035634936 
H         0.033741502     8.835210338    -5.370670853 
H         0.088248812    11.318463807    -3.035634936 
H        -7.720300698    -8.766660390     0.107811226 
H        -3.732000255   -11.069306725    -0.107811226 
H         0.088248812   -11.318463807     3.035634936 
H         0.033741502    -8.835210338     5.370670853 
H        -0.088248812   -11.318463807    -3.035634936 
H        -0.033741502    -8.835210338    -5.370670853 
H       -11.452300954     2.302646335     0.107811226 
H       -11.452300954    -2.302646335    -0.107811226 
H        -7.634645850    -4.446826167     5.370670853 
H        -9.757952783    -5.735657616     3.035634936 
H        -7.668387352    -4.388384171    -5.370670853 
H        -9.846201594    -5.582806190    -3.035634936 

6_HOST.wfx

