%MEM=12GB
%nprocs=6
#p pbepbe aug-cc-pvtz Int(Grid=UltraFine) units=au output=wfx

6_MONOMER2 

1 1
N        -1.379989494     3.381272057     0.000000000 
C         0.630573677     1.283562415     0.000000000 
C        -0.613703023    -1.308413960     0.000000000 
C         1.397603041    -3.400167565     0.000000000 
H         0.480209973    -5.248527344     0.000000000 
H         1.779423135     1.613080858    -1.683223571 
H        -2.520428804     3.238357812     1.564702233 
H        -0.582241403     5.150950318     0.000000000 
H        -2.520428804     3.238357812    -1.564702233 
H         2.598991014    -3.281150361     1.678653140 
H         2.598991014    -3.281150361    -1.678653140 
H        -1.824211731    -1.499626269     1.673880509 
H        -1.824211731    -1.499626269    -1.673880509 
H         1.779423135     1.613080858     1.683223571 

6_MONOMER2.wfx

