%MEM=12GB
%nprocs=6
#p pbepbe aug-cc-pvtz Int(Grid=UltraFine) units=au output=wfx

7_COMPLEX2 

0 1
O        -8.245589667     0.095130717    -5.823309738 
O        -5.112617850     6.439197045    -5.836591878 
O         2.107247744     8.072605353    -5.772111679 
O         7.742733935     3.795554849    -5.869867801 
O         6.955555327    -3.284633830    -5.645986944 
O         1.659827719    -8.128447449    -5.968447688 
O        -5.241204609    -6.399288212    -5.860384087 
O        -8.265036443     0.028270309     5.944678802 
O        -5.131507866     6.530089358     6.005997590 
O         1.738404855     7.899177863     6.041051946 
O         7.399896645     3.232202805     5.958166877 
O         7.649638757    -3.771959226     5.994869769 
O         1.800474808    -7.934899667     5.870266219 
O        -5.206997533    -6.289249728     5.903055833 
N        -9.747811678    -2.013953019    -2.264912727 
N        -9.726707750     2.214857152    -2.261888174 
N        -7.702359979     6.356755943    -2.280726009 
N        -4.250612325     8.797341430    -2.219195963 
N         0.243280587     9.742661578    -2.147096005 
N         4.415449179     9.032626946    -2.150166821 
N         8.043181556     6.181570009    -2.181398715 
N         9.731383379     2.308991597    -2.236558319 
N         9.573973270    -2.293686641    -2.257505373 
N         7.616677577    -6.043753509    -2.285643867 
N         4.064023765    -8.976715312    -2.382947600 
N        -0.054515240    -9.911461732    -2.326780537 
N        -4.543114156    -8.889107533    -2.300705623 
N        -7.787720027    -6.180324756    -2.276326276 
N        -9.820762568    -2.042608570     2.387458877 
N        -9.704210864     2.180854214     2.386939545 
N        -7.604516597     6.272522779     2.372905095 
N        -4.350471923     8.971385669     2.429709393 
N         0.152559531     9.978983597     2.502688995 
N         4.195628712     8.747716865     2.486519286 
N         7.779433720     5.878387645     2.460587797 
N         9.766423418     2.146953096     2.412967546 
N         9.789752289    -2.458690249     2.379843492 
N         7.876828194    -6.223610729     2.347714949 
N         4.134460078    -8.907682868     2.266291744 
N         0.005052732    -9.830526753     2.327721544 
N        -4.478734313    -8.776889147     2.345955944 
N        -7.835767048    -6.207246742     2.375121879 
C       -11.062516931    -1.376531509     0.046452395 
C       -11.015920788     1.583594061     0.063646601 
C        -5.773796068    -7.053142846    -3.727115298 
C        -2.534489298   -10.400362867    -3.368524491 
C        -7.934906789     7.720160162     0.072086092 
C        -5.586462105     9.519563038     0.057977633 
C         1.856348439    -8.883769884    -3.811710438 
C         6.459750476    -8.237309654    -3.452762451 
C         1.107712330    10.968419767     0.146358117 
C         3.984056028    10.289080629     0.231598596 
C         7.917161903    -3.802378990    -3.618861537 
C        10.638592706    -0.012017464    -3.340109465 
C         9.341378272     6.017553294     0.214632460 
C        10.632859801     3.356178407     0.122890603 
C         8.392445411     4.053943134    -3.687801449 
C        10.543439653    -3.529735395    -0.017208343 
C         9.188434207    -6.161761277    -0.046423971 
C        -9.674570110    -4.519682905    -3.351854972 
C        -9.104696346     0.099091390    -3.696655321 
C         3.762311513   -10.338804105    -0.033829443 
C         0.874970985   -10.986632912     0.008577426 
C        -9.625105308     4.728920265    -3.335729765 
C        -5.609687985     7.093606177    -3.696024327 
C        -5.812185871    -9.444968460     0.052455641 
C        -8.123357038    -7.595636398     0.040899308 
C        -2.190653252    10.236164225    -3.292456438 
C         2.235693486     8.826456990    -3.611751518 
C        -9.739947800    -4.561612300     3.442112177 
C        -9.127730143     0.052092756     3.817800394 
C         6.881750626     8.448626655    -3.175756339 
C        -5.756738819    -6.981212515     3.785740266 
C        -2.458271215   -10.262674435     3.432196015 
C        -9.545388836     4.685872916     3.463587910 
C        -5.615672340     7.158918156     3.853048567 
C         1.953071971    -8.762099468     3.736383378 
C         6.591289724    -8.409291340     3.362008949 
C        -2.337936090    10.472829858     3.511103217 
C         1.988701475     8.743396194     3.922419145 
C         8.327849677    -4.096612016     3.827676833 
C        10.812425818    -0.156911381     3.442587420 
C         6.581734094     8.046055679     3.615525000 
C         8.192641945     3.686072167     3.852660430 
H       -12.984081755    -2.173645361     0.011355032 
H        10.341042893    -0.184592612     5.454840505 
H         6.186406691     7.538082774     5.579774716 
H         7.884582061     9.667794656     3.528542841 
H        12.873415022    -0.137921722     3.172060851 
H         7.793972849   -10.086826857     3.106001568 
H        -2.780511666    12.485427224     3.242424853 
H        -2.267349154    10.003143689     5.522169993 
H         6.288885653    -8.030557914     5.371294424 
H        -2.931383846   -12.280751941     3.257237983 
H       -11.389482310     5.627788527     3.260194319 
H        -9.066188966     4.448534773     5.460098421 
H        -2.320854168    -9.717498817     5.421055228 
H         6.623693250     8.135097494    -5.202349991 
H        -9.282843561    -4.347182316     5.446109255 
H       -11.603397265    -5.452324231     3.205973336 
H         8.147026471    10.062432019    -2.837840185 
H        -9.962093544    -8.569092270     0.017168302 
H        -2.622056402    12.267108111    -3.134792885 
H        -6.358663350   -11.451973719     0.107987915 
H        -2.040447971     9.679568003    -5.277585654 
H         0.488117367   -13.031049027     0.048391187 
H       -11.481422028     5.635225883    -3.102642669 
H         4.986312437   -12.022281826    -0.022054694 
H        -9.171093804     4.500712564    -5.339080906 
H        10.500397542    -7.769144488    -0.190426729 
H       -11.547927471    -5.400623164    -3.149061008 
H        12.616086713    -3.660613849    -0.124782729 
H        -9.190622993    -4.288362625    -5.348139497 
H        12.712014397     3.447070136     0.116290310 
H        10.083117838     0.034406782    -5.330390961 
H        10.697068460     7.586131129     0.394713535 
H        12.708372877    -0.110330163    -3.161556714 
H         5.222556072    11.954075678     0.391537453 
H         7.795383274    -9.826649374    -3.327861224 
H         0.743596968    13.014575985     0.038566604 
H         6.089760621    -7.752550229    -5.427528926 
H        -6.091839719    11.536780295    -0.026571145 
H        -2.434733871    -9.926533235    -5.377814873 
H        -9.752178761     8.732812056     0.129156979 
H        -2.994787448   -12.411855535    -3.111579832 
H       -12.911845766     2.440397404     0.078354863 
C        -3.114132504    -1.287722620     0.637960629 
C        -2.619145292     1.454212738    -0.194289281 
C        -0.841919327     2.731800183     1.718078763 
C         1.673571718     1.277212771     1.829353999 
C         1.177522876    -1.471368813     2.640437724 
C        -0.599265111    -2.742777890     0.723475629 
C        -1.385814189     1.468077642    -2.827601673 
C         2.894847664     1.293428029    -0.812679328 
C         0.625959390    -2.709992057    -1.914919007 
C         1.125332022     0.027727549    -2.745180075 
O         2.139361765     0.143521907    -5.252076845 
H        -3.995013141    -1.315617046     2.514303548 
H        -4.419483569    -2.201461406    -0.687966604 
H        -4.416278313     2.484302997    -0.269133418 
H        -0.493623930     4.691275969     1.130627797 
H        -1.710310305     2.790276856     3.598351254 
H         2.931585121     2.180894709     3.203912503 
H         2.969794630    -2.509472785     2.745854023 
H         0.338730035    -1.522139864     4.533628312 
H        -0.956469405    -4.701405065     1.296724351 
H        -2.621599459     0.582664680    -4.234019346 
H        -1.019763718     3.404274497    -3.466463762 
H         4.706582856     0.277150577    -0.768143125 
H         3.277335068     3.233382692    -1.432522279 
H         2.426122033    -3.744898659    -1.867321494 
H        -0.588576272    -3.620930346    -3.324551953 
H         3.632428978    -0.929770099    -5.354890498 

7_COMPLEX2.wfx

