153
7_COMPLEX2.log	Energy: -2935741.4190797
O         -4.24329        1.00366       -3.08511
O         -1.87484        3.90347       -3.11014
O          2.04224        3.88942       -3.07259
O          4.44103        1.01478       -3.10245
O          3.19489       -2.54220       -2.96048
O         -0.11073       -4.41296       -3.12102
O         -3.46449       -2.70206       -3.07849
O         -4.26654        1.01447        3.14230
O         -1.87912        3.99583        3.15620
O          1.82614        3.88688        3.17865
O          4.19207        0.80813        3.15804
O          3.48977       -2.83335        3.20200
O         -0.02056       -4.28660        3.14311
O         -3.43908       -2.60641        3.14596
N         -5.26984        0.10726       -1.19673
N         -4.75719        2.28553       -1.20972
N         -3.22176        4.18121       -1.23147
N         -1.15213        5.03048       -1.20301
N          1.27752        4.98504       -1.16248
N          3.34487        4.12385       -1.15641
N          4.87743        2.22305       -1.15852
N          5.28856        0.02549       -1.17219
N          4.66127       -2.32948       -1.16756
N          3.20694       -4.03123       -1.17194
N          1.02686       -5.12257       -1.21775
N         -1.20802       -5.11574       -1.18997
N         -3.40151       -4.05586       -1.18535
N         -4.75336       -2.27391       -1.18589
N         -5.31295        0.11813        1.26515
N         -4.75171        2.28230        1.25042
N         -3.18339        4.14316        1.23148
N         -1.18506        5.14906        1.25629
N          1.25669        5.13466        1.29709
N          3.19562        4.01994        1.29787
N          4.70335        2.11494        1.29858
N          5.28532       -0.04525        1.28878
N          4.75088       -2.42323        1.28720
N          3.31767       -4.13792        1.28082
N          1.06928       -5.07835        1.24231
N         -1.16979       -5.06407        1.27282
N         -3.35708       -3.98866        1.27319
N         -4.78343       -2.26510        1.27552
C         -5.87324        0.60040        0.02251
C         -5.49798        2.12145        0.02143
C         -3.81769       -2.96826       -1.94805
C         -2.54449       -5.07742       -1.74265
C         -3.18097        4.92049        0.00855
C         -1.75636        5.56974       -0.00219
C         -0.09998       -4.81792       -1.97690
C          2.35055       -5.02942       -1.78340
C          1.86772        5.52297        0.04798
C          3.27042        4.83168        0.09905
C          3.62844       -2.91589       -1.88480
C          5.48151       -1.28311       -1.74699
C          5.52637        1.99318        0.11158
C          5.87665        0.46717        0.07386
C          4.80577        1.07891       -1.94785
C          5.01356       -3.07374        0.02342
C          4.00249       -4.27039        0.01536
C         -5.52889       -1.19758       -1.76314
C         -4.68681        1.11540       -1.96085
C          0.70859       -5.78061        0.02965
C         -0.85731       -5.77195        0.05070
C         -4.40600        3.56603       -1.78653
C         -2.05450        4.30774       -1.98032
C         -4.12299       -4.18335        0.06019
C         -5.09543       -2.95549        0.04477
C          0.08141        5.52414       -1.77333
C          2.19696        4.27082       -1.93185
C         -5.57064       -1.18664        1.83205
C         -4.70765        1.12134        2.01566
C          4.54792        3.52632       -1.69399
C         -3.80374       -2.90575        2.02726
C         -2.49191       -4.99063        1.85567
C         -4.37306        3.55920        1.81168
C         -2.05323        4.36970        2.01415
C         -0.03905       -4.73908        2.01699
C          2.39492       -5.10883        1.82349
C          0.03047        5.68851        1.82587
C          2.05634        4.28480        2.05494
C          3.80198       -3.08916        2.05717
C          5.55092       -1.35368        1.84290
C          4.34238        3.37911        1.90072
C          4.65569        0.94044        2.04331
H         -6.95876        0.41720        0.00428
H          5.30364       -1.30468        2.90721
H          4.07735        3.17123        2.94140
H          5.20673        4.06053        1.85073
H          6.61615       -1.58941        1.70227
H          2.81622       -6.11755        1.69533
H          0.04116        6.77792        1.67618
H          0.01024        5.44526        2.89176
H          2.28301       -4.87030        2.88504
H         -2.97527       -5.97584        1.76947
H         -5.21221        4.26300        1.69847
H         -4.15499        3.38725        2.86958
H         -2.35725       -4.71852        2.90639
H          4.37855        3.38785       -2.76564
H         -5.31036       -1.12298        2.89233
H         -6.63720       -1.42574        1.70783
H          5.39176        4.20965       -1.51917
H         -6.15916       -3.23941        0.03327
H          0.09984        6.62324       -1.69747
H         -4.64297       -5.15330        0.09582
H          0.09372        5.21204       -2.82168
H         -1.29941       -6.78020        0.07835
H         -5.25588        4.25451       -1.66865
H          1.14005       -6.79394        0.04324
H         -4.19804        3.38716       -2.84527
H          4.48841       -5.25549       -0.05363
H         -6.59961       -1.42887       -1.65514
H          6.06694       -3.38754       -0.03045
H         -5.25098       -1.14300       -2.81969
H          6.95967        0.26733        0.07266
H          5.20146       -1.20053       -2.80103
H          6.41155        2.64189        0.20315
H          6.53716       -1.57873       -1.64956
H          4.10660        5.54394        0.17948
H          2.85071       -6.00704       -1.71014
H          1.92278        6.62096       -0.01659
H          2.21815       -4.74274       -2.83052
H         -1.77759        6.66965       -0.05454
H         -2.43593       -4.85225       -2.80741
H         -3.99801        5.65853        0.03296
H         -3.02066       -6.05918       -1.60031
H         -6.37406        2.78830        0.02387
C         -1.76396       -0.29471        0.34520
C         -1.18298        1.05752       -0.10406
C         -0.11573        1.51248        0.90571
C          1.00887        0.46430        0.97279
C          0.42657       -0.89130        1.41086
C         -0.63973       -1.34314        0.39864
C         -0.54412        0.90872       -1.49601
C          1.64180        0.31811       -0.42380
C         -0.00280       -1.48124       -0.99608
C          0.57995       -0.13170       -1.44426
O          1.11775       -0.20146       -2.76995
H         -2.22239       -0.19773        1.33708
H         -2.54496       -0.61588       -0.35492
H         -1.98751        1.80168       -0.14949
H          0.29665        2.47949        0.58852
H         -0.55746        1.65253        1.89939
H          1.76425        0.78608        1.69861
H          1.22762       -1.63891        1.47249
H         -0.01288       -0.81105        2.41180
H         -1.05659       -2.30871        0.70831
H         -1.28584        0.59361       -2.23873
H         -0.12532        1.86143       -1.84031
H          2.45551       -0.42077       -0.39445
H          2.06951        1.27089       -0.75803
H          0.80273       -2.22835       -0.96505
H         -0.73659       -1.81205       -1.74038
H          1.76042       -0.93247       -2.81877
