%MEM=12GB
%nprocs=6
#p pbepbe aug-cc-pvtz Int(Grid=UltraFine) units=au output=wfx

7_HOST 

0 1
O        -8.071605500     0.119712001    -5.917958381 
O        -5.183875730     6.671464513    -5.883213385 
O         1.695488453     8.180049716    -5.890760976 
O         7.188233582     3.518494120    -5.923728370 
O         7.357162364    -3.766757817    -5.899994474 
O         1.950557915    -8.269993644    -5.882884955 
O        -4.942520172    -6.457380552    -5.913570361 
O        -8.408573846    -0.127183526     5.886748121 
O        -5.095112177     6.243841431     5.922948422 
O         1.976389963     7.934038931     5.911558851 
O         7.667452886     3.663932617     5.882816952 
O         7.490128666    -3.391320604     5.900837516 
O         1.712595231    -7.845743928     5.922306583 
O        -5.333102687    -6.472456853     5.889544994 
N        -9.552694038    -2.065100716    -2.392925669 
N        -9.701810996     2.160994849    -2.377005948 
N        -7.659977208     6.289201832    -2.261426447 
N        -4.437016924     9.029660870    -2.243449872 
N         0.056614144    10.070986608    -2.271496049 
N         4.135585295     8.948844500    -2.305485572 
N         7.759751652     6.111597031    -2.414021283 
N         9.523494221     2.269060340    -2.406815679 
N         9.507001903    -2.330095440    -2.333941484 
N         7.888365211    -6.238163453    -2.298773279 
N         4.274914952    -9.106218158    -2.240250890 
N         0.129958657    -9.953368075    -2.243856824 
N        -4.373657733    -8.988202610    -2.359557201 
N        -7.563451944    -6.212271492    -2.382989052 
N        -9.812284461    -2.170305437     2.250842245 
N        -9.665092105     2.057829443     2.274972300 
N        -7.719978643     6.231407357     2.390805516 
N        -4.344012526     8.777568246     2.400941026 
N         0.139155149     9.804651790     2.373066867 
N         4.299425362     9.046938482     2.344203597 
N         7.861910030     6.125429981     2.237152185 
N         9.751481886     2.340299801     2.238799350 
N         9.775929245    -2.271935464     2.311608581 
N         7.739603140    -5.979481745     2.345367552 
N         4.156876700    -8.862566021     2.403944447 
N         0.062532804    -9.918020402     2.408228652 
N        -4.413239781    -8.840193108     2.291420462 
N        -7.818863291    -6.330135373     2.261254985 
C       -10.970438981    -1.483389922    -0.124967994 
C       -10.971977459     1.475314948    -0.060151571 
C        -5.534215906    -7.115871924    -3.797316735 
C        -2.314082387   -10.478483906    -3.357544320 
C        -8.000748891     7.662504874     0.082560814 
C        -5.690681580     9.511797370     0.134872767 
C         2.095081650    -8.991856799    -3.710281745 
C         6.725896553    -8.503001085    -3.293129013 
C         1.002500031    11.052580518     0.093728132 
C         3.886514488    10.395316549     0.007582545 
C         8.128362648    -4.063690182    -3.760122547 
C        10.482011085    -0.049554460    -3.488351229 
C         9.246617427     6.102911098    -0.123090564 
C        10.524584821     3.433355979    -0.143737693 
C         8.027327411     3.906607066    -3.824268139 
C        10.529049224    -3.429767187    -0.041629874 
C         9.249408487    -6.095096915     0.061763970 
C        -9.421973312    -4.555531258    -3.512485586 
C        -8.968860967     0.078108066    -3.807115582 
C         3.887355811   -10.381499554     0.144577338 
C         1.003946772   -11.048346608     0.107950828 
C        -9.578099929     4.695126155    -3.388085099 
C        -5.679876628     7.237926441    -3.716364353 
C        -5.693718025    -9.523611281    -0.031686571 
C        -8.001657425    -7.672988373    -0.109204726 
C        -2.433542124    10.574980640    -3.280228779 
C         1.926079462     8.944014873    -3.740088719 
C        -9.766357022    -4.703453940     3.278712945 
C        -9.171807418    -0.086166954     3.723845159 
C         6.538371035     8.320980985    -3.455600709 
C        -5.782471155    -7.111616712     3.732703802 
C        -2.431880512   -10.342355416     3.435651140 
C        -9.612615306     4.547253677     3.410887616 
C        -5.635689820     6.971216306     3.815481427 
C         1.941580562    -8.737278913     3.821030573 
C         6.561103638    -8.162414273     3.497671078 
C        -2.311541261    10.231270875     3.508222779 
C         2.115880595     8.793432972     3.789176202 
C         8.219418124    -3.814490317     3.767446023 
C        10.809478321     0.054592439     3.305191520 
C         6.752046490     8.370999350     3.338819684 
C         8.320182445     3.989656490     3.707947404 
H       -12.876953592    -2.308128873    -0.248874493 
H        10.369278641     0.087563635     5.324246120 
H         6.492489314     7.974896931     5.350666503 
H         8.049920319     9.973039564     3.069396973 
H        12.866205182     0.055997210     3.003562532 
H         7.860359722    -9.783699170     3.374607798 
H        -2.777588633    12.255581499     3.381470169 
H        -2.163146586     9.642986609     5.484163136 
H         6.200343704    -7.670229125     5.472630710 
H        -2.906211683   -12.358052133     3.240014154 
H       -11.483306159     5.431473580     3.199596536 
H        -9.158088808     4.275868096     5.408809577 
H        -2.357873132    -9.803141779     5.429540360 
H         6.153107483     7.910598119    -5.444480171 
H        -9.385168649    -4.515094207     5.301143378 
H       -11.618085588    -5.592341191     2.961208026 
H         7.823584740     9.947305512    -3.280150369 
H        -9.836995413    -8.645751462    -0.233461739 
H        -2.893575824    12.576940111    -2.963482513 
H        -6.244800503   -11.529397488     0.026776470 
H        -2.350716091    10.157206212    -5.302526469 
H         0.629774505   -13.095397239     0.118304023 
H       -11.436165033     5.600767501    -3.158975473 
H         5.120596345   -12.053677729     0.262695011 
H        -9.097309517     4.517684451    -5.390387418 
H        10.612702598    -7.661895877     0.190809121 
H       -11.295841427    -5.453277742    -3.393290578 
H        12.604889284    -3.513750834    -0.158885935 
H        -8.866772822    -4.294632511    -5.486473762 
H        12.601506467     3.512714270    -0.246318733 
H         9.882186958    -0.081783783    -5.466254246 
H        10.612252637     7.672646628    -0.157655411 
H        12.559017436    -0.051281175    -3.355020188 
H         5.114525511    12.073601289    -0.070045689 
H         8.009210671   -10.107549454    -2.979395666 
H         0.623973067    13.095141010     0.216149915 
H         6.437301191    -8.184979665    -5.314790381 
H        -6.239221651    11.515700367     0.253657306 
H        -2.159332733   -10.015850408    -5.365902449 
H        -9.839177033     8.637375812     0.071335761 
H        -2.759018130   -12.493678151    -3.102615082 
H       -12.882177387     2.299909859    -0.027432066 

7_HOST.wfx

