%MEM=12GB
%nprocs=6
#p pbepbe aug-cc-pvtz Int(Grid=UltraFine) units=au output=wfx

7_MONOMER1 

2 1
Fe        0.000000000     0.000000000     0.000000000 
C        -0.997917876     3.165062705    -1.950912442 
C         0.809986160     3.155148819     2.052313295 
C         2.759746682     2.721816945     0.244393179 
C         1.646808354     2.727899226    -2.220080295 
C        -1.538313735     3.447253965     0.703627454 
C         0.997917876    -3.165062705     1.950912442 
C        -1.646808354    -2.727899226     2.220080295 
C        -2.759746682    -2.721816945    -0.244393179 
C        -0.809986160    -3.155148819    -2.052313295 
C         1.538313735    -3.447253965    -0.703627454 
C        -4.063498848     3.921676254     1.843740769 
C         4.063498848    -3.921676254    -1.843740769 
N        -4.708769864     6.768306008     2.152310069 
N         4.708769864    -6.768306008    -2.152310069 
C        -2.815341443     8.038884933     3.858237179 
C        -4.715254837     8.067705815    -0.381724627 
C        -7.304301625     6.958622510     3.316920948 
C         2.815341443    -8.038884933    -3.858237179 
C         7.304301625    -6.958622510    -3.316920948 
C         4.715254837    -8.067705815     0.381724627 
H        -2.366575951     3.227911186    -3.469355080 
H         1.044521193     3.206598513     4.083416471 
H         4.733833472     2.413009027     0.673721382 
H         2.629679264     2.425779883    -3.986234892 
H         2.366575951    -3.227911186     3.469355080 
H        -2.629679264    -2.425779883     3.986234892 
H        -4.733833472    -2.413009027    -0.673721382 
H        -1.044521193    -3.206598513    -4.083416471 
H        -4.207358134     3.138626154     3.748051494 
H        -5.587565224     3.157699574     0.680215639 
H         4.207358134    -3.138626154    -3.748051494 
H         5.587565224    -3.157699574    -0.680215639 
H        -0.954918365     7.906630893     2.987649076 
H        -3.368830689    10.011432365     4.080279088 
H        -2.833936507     7.084161291     5.685012469 
H        -2.828177161     7.934303383    -1.192442343 
H        -6.096072975     7.133768478    -1.594256708 
H        -5.239209149    10.039915962    -0.094151763 
H        -7.273117194     6.019768508     5.151411276 
H        -7.775769504     8.951864403     3.543170264 
H        -8.657884702     6.042877953     2.061261321 
H         2.833936507    -7.084161291    -5.685012469 
H         3.368830689   -10.011432365    -4.080279088 
H         0.954918365    -7.906630893    -2.987649076 
H         7.273117194    -6.019768508    -5.151411276 
H         8.657884702    -6.042877953    -2.061261321 
H         7.775769504    -8.951864403    -3.543170264 
H         2.828177161    -7.934303383     1.192442343 
H         5.239209149   -10.039915962     0.094151763 
H         6.096072975    -7.133768478     1.594256708 

7_MONOMER1.wfx

