%MEM=12GB
%nprocs=6
#p pbepbe aug-cc-pvtz Int(Grid=UltraFine) units=au output=wfx

7_MONOMER2 

0 1
C        -0.023871819     1.763462180     2.999192869 
C        -2.392693208     0.874316630     1.563100831 
C        -2.463821228    -2.033741352     1.516628437 
C        -0.083711035    -3.045294292     0.183763696 
C         2.282201528    -2.157406141     1.625603544 
C         2.359591726     0.750512316     1.673633954 
C        -2.293932379     1.869214723    -1.172328071 
C         0.005081376    -2.032758146    -2.543702864 
C         2.440128134     1.745584836    -1.062413906 
C         0.080453077     0.858304439    -2.502452932 
O         0.162138561     1.658263335    -5.108021948 
H        -0.087148043     1.083278342     4.958199087 
H         0.028647414     3.836978751     3.067704467 
H        -4.092916450     1.600223501     2.501880831 
H        -4.164836888    -2.686039439     0.523915881 
H        -2.557463013    -2.769391241     3.454295656 
H        -0.136643382    -5.117078597     0.141014500 
H         3.990477315    -2.897108431     0.709890972 
H         2.249344419    -2.895890864     3.564131001 
H         4.049824737     1.388107276     2.691342737 
H        -2.254003887     3.947432274    -1.175987327 
H        -3.970166003     1.271015692    -2.234902245 
H         1.682848780    -2.738444164    -3.535201114 
H        -1.661298447    -2.649821493    -3.610703547 
H         4.130314111     1.059259232    -2.046598231 
H         2.508917540     3.823139628    -1.065893318 
H         0.212537065     3.493881005    -5.116092960 

7_MONOMER2.wfx

