%nprocs=4
%mem=2GB
#P pbepbe aug-cc-pvtz SCF=(Conver=6) Int=(grid=ultrafine) output=wfx
 
title
 
0 1
C	20.37500 27.13100 10.18700
H	20.77800 26.39300 10.88300
H	19.30700 27.23700 10.38300
C	20.54000 26.57700 8.773000
H	20.37800 27.33600 8.009000
C	21.95300 26.03000 8.616000
H	22.05800 25.62600 7.609000
H	22.66100 26.85500 8.771000
H	22.12100 25.24800 9.363000
C	19.49000 25.48000 8.621000
H	19.56600 25.05200 7.621000
H	19.65600 24.70700 9.381000
H	18.48800 25.92200 8.763000
H	20.85217 28.10683 10.36039
C	16.73700 21.75300 8.985000
C	18.06300 21.93100 8.570000
C	19.04400 21.01900 8.966000
C	18.68400 19.93600 9.775000
C	17.35900 19.76800 10.19300
C	16.38200 20.67900 9.796000
H	15.33000 20.56400 10.09500
H	17.07400 18.92500 10.82100
H	19.43700 19.21300 10.07200
H	20.08100 21.14800 8.627000
H	18.32800 22.76900 7.913000
C	15.63700 22.68100 8.524000
H	15.79700 23.65100 8.994000
H	14.68200 22.28100 8.905000
H	15.59011 22.79893 7.431346

HSG-16-dimer.wfx


