%nprocs=4
%mem=2GB
#P pbepbe aug-cc-pvtz SCF=(Conver=6) Int=(grid=ultrafine) output=wfx
 
title
 
-1 1
C	20.08800 16.66100 -0.398000
H	19.04500 16.60200 -0.082000
H	20.18300 16.24400 -1.387000
C	20.90200 15.70700 0.505000
O	21.91000 15.13700 0.031000
O	20.37700 15.22700 1.542000
H	20.29988 17.73389 -0.5163442
C	17.41000 17.97200 3.810000
C	17.48600 17.37200 2.527000
C	16.60600 17.86100 1.547000
C	15.70300 18.89200 1.854000
C	15.65400 19.47000 3.123000
C	16.51300 18.99700 4.107000
H	18.19800 16.55200 2.242000
H	16.61400 17.45600 0.523000
H	15.03200 19.27500 1.092000
H	14.96900 20.29200 3.327000
H	16.61088 19.36781 5.137980
H	18.01270 17.77884 4.709692

HSG-6-dimer.wfx


