%nprocs=4
%mem=2GB
#P pbepbe aug-cc-pvtz SCF=(Conver=6) Int=(grid=ultrafine) output=wfx
 
title
 
0 1
C	11.54100 27.68600 13.69600
H	12.45900 27.15000 13.44600
C	10.79000 27.96500 12.40600
H	10.55700 27.01400 11.92400
H	9.879000 28.51400 12.64300
H	11.44300 28.56800 11.76200
H	10.90337 27.06487 14.34224
H	11.78789 28.62476 14.21347

HSG-18-monoA-unCP.wfx


