%nprocs=4
%mem=2GB
#P pbepbe aug-cc-pvtz SCF=(Conver=6) Int=(grid=ultrafine) output=wfx
 
title
 
0 1
C	18.95600 23.00600 13.42400
H	19.58200 22.11000 13.49500
C	17.99700 22.76900 12.25600
H	18.56900 22.61800 11.32900
H	17.41200 21.87100 12.48100
H	17.34100 23.63600 12.15300
C	19.86100 24.16500 13.07400
H	20.34500 23.96700 12.11700
H	19.24600 25.06600 13.01700
H	20.59800 24.25000 13.87300
H	18.44867 23.19359 14.38182

HSG-19-monoA-unCP.wfx


