%nprocs=4
%mem=2GB
#P pbepbe aug-cc-pvtz SCF=(Conver=6) Int=(grid=ultrafine) output=wfx
 
title
 
0 1
C	18.95600 23.00600 13.42400
H	19.58200 22.11000 13.49500
C	17.99700 22.76900 12.25600
H	18.56900 22.61800 11.32900
H	17.41200 21.87100 12.48100
H	17.34100 23.63600 12.15300
C	19.86100 24.16500 13.07400
H	20.34500 23.96700 12.11700
H	19.24600 25.06600 13.01700
H	20.59800 24.25000 13.87300
H	18.44867 23.19359 14.38182
C	16.73700 21.75300 8.985000
C	18.06300 21.93100 8.570000
C	19.04400 21.01900 8.966000
C	18.68400 19.93600 9.775000
C	17.35900 19.76800 10.19300
C	16.38200 20.67900 9.796000
H	15.33000 20.56400 10.09500
H	17.07400 18.92500 10.82100
H	19.43700 19.21300 10.07200
H	20.08100 21.14800 8.627000
H	18.32800 22.76900 7.913000
H	15.93631 22.42849 8.649437

HSG-19-dimer.wfx


