%nprocs=4
%mem=2GB
#P pbepbe aug-cc-pvtz SCF=(Conver=6) Int=(grid=ultrafine) output=wfx
 
title
 
0 1
N	9.334000 19.62700 6.121000
H	10.08000 19.74000 6.781000
C	8.252000 20.39100 6.228000
O	7.244000 20.21700 5.545000
C	8.331000 21.48900 7.284000
H	8.671000 22.40300 6.814000
H	9.046000 21.19200 8.047000
N	7.066000 21.74000 7.938000
H	6.754000 21.01200 8.573000
O	6.647000 23.71300 6.921000
C	6.276000 22.76600 7.611000
H	9.495216 18.80266 5.410733
H	5.248769 22.75803 8.004361

HSG-9-monoA-unCP.wfx


