%nprocs=4
%mem=2GB
#P pbepbe aug-cc-pvtz SCF=(Conver=6) Int=(grid=ultrafine) output=wfx
 
title
 
0 1
C	10.37400 21.44300 10.31100
H	9.934000 21.48700 9.305000
C	9.280000 21.86400 11.28300
H	8.982000 22.89200 11.04700
H	8.438000 21.18400 11.17100
H	9.688000 21.81300 12.29800
C	11.56200 22.42400 10.37400
H	12.42800 21.94400 9.922000
H	11.32000 23.31700 9.801000
C	11.94400 22.85500 11.78700
H	12.79300 23.53700 11.72100
H	11.08500 23.36200 12.24600
H	12.21000 21.96700 12.37000
H	10.70966 20.41678 10.52123

HSG-14-monoA-unCP.wfx


