%nprocs=4
%mem=2GB
#P pbepbe aug-cc-pvtz SCF=(Conver=6) Int=(grid=ultrafine) output=wfx
 
title
 
0 1
C	16.73700 21.75300 8.985000
C	18.06300 21.93100 8.570000
C	19.04400 21.01900 8.966000
C	18.68400 19.93600 9.775000
C	17.35900 19.76800 10.19300
C	16.38200 20.67900 9.796000
H	15.33000 20.56400 10.09500
H	17.07400 18.92500 10.82100
H	19.43700 19.21300 10.07200
H	20.08100 21.14800 8.627000
H	18.32800 22.76900 7.913000
H	15.93631 22.42849 8.649437

HSG-3-monoB-unCP.wfx


