%nprocs=4
%mem=2GB
#P pbepbe aug-cc-pvtz SCF=(Conver=6) Int=(grid=ultrafine) output=wfx
 
title
 
0 1
C	18.71400 22.19500 2.742000
H	18.37900 21.58700 3.577000
N	18.79700 23.57100 3.209000
H	18.86300 24.28300 2.488000
C	18.84100 23.91000 4.508000
O	18.83700 23.07300 5.410000
C	18.95700 25.38900 4.894000
H	18.06200 25.68500 5.433000
H	19.81900 25.52500 5.542000
H	19.09001 26.05938 4.032084
H	19.70954 21.82087 2.461043
H	17.98479 22.13814 1.920400

HSG-10-monoA-unCP.wfx


