%nprocs=4
%mem=2GB
#P pbepbe aug-cc-pvtz SCF=(Conver=6) Int=(grid=ultrafine) output=wfx
 
title
 
0 1
C	14.25800 24.02900 5.093000
O	15.51000 24.53800 4.641000
C	13.12200 24.97500 4.578000
N	11.86200 24.24500 4.359000
C	11.78200 23.78100 2.948000
C	10.62700 24.87500 4.938000
H	15.42000 24.70300 3.667000
H	14.02700 23.02800 4.754000
H	12.93300 25.79400 5.257000
H	13.40100 25.40500 3.596000
H	10.49500 25.96800 4.694000
H	12.00900 24.60600 2.286000
H	12.53400 23.01100 2.841000
H	10.60902 24.83400 6.037089
H	9.792144 24.23767 4.611163
H	10.82891 23.34622 2.612456
H	14.36576 23.85731 6.174161

HSG-7-monoB-unCP.wfx


