%nprocs=4
%mem=2GB
#P pbepbe aug-cc-pvtz SCF=(Conver=6) Int=(grid=ultrafine) output=wfx
 
title
 
0 1
C	5.250000 26.25800 10.94600
H	5.928000 26.22800 10.10000
C	5.965000 25.62100 12.14400
H	5.388000 25.81100 13.04900
H	6.001000 24.53800 11.98600
C	7.381000 26.17300 12.29600
H	7.851000 25.68400 13.15200
H	7.950000 25.96300 11.38000
H	7.328000 27.25600 12.46000
H	4.327890 25.69684 10.73431
H	4.991234 27.31620 11.09851

HSG-12-monoA-unCP.wfx


