%nprocs=4
%mem=2GB
#P pbepbe aug-cc-pvtz SCF=(Conver=6) Int=(grid=ultrafine) output=wfx
 
title
 
1 1
C	23.73500 21.90400 8.645000
H	24.33900 21.64000 9.515000
H	23.04400 22.70000 8.945000
N	22.96900 20.71700 8.247000
H	22.85100 20.56200 7.249000
C	22.40300 19.85100 9.070000
N	22.40300 20.05000 10.36600
H	22.82700 20.88300 10.74700
H	21.93200 19.41900 10.98100
N	21.82000 18.77600 8.615000
H	21.76800 18.61500 7.604000
H	21.33700 18.14400 9.214000
H	24.38340 22.25566 7.828969

HSG-3-monoA-unCP.wfx


