%nprocs=4
%mem=2GB
#P pbepbe aug-cc-pvtz SCF=(Conver=6) Int=(grid=ultrafine) output=wfx
 
title
 
-1 1
O	8.976000 28.18400 5.336000
H	9.797000 28.02600 4.860000
H	8.600000 28.95300 4.860000
C	7.707000 31.02100 3.964000
O	8.101000 31.66300 2.963000
O	7.068000 29.95800 3.828000
C	8.014000 31.53300 5.387000
H	7.465000 32.46700 5.552000
H	7.660000 30.81200 6.145000
H	9.081843 31.72975 5.563073
C	10.62700 24.87500 4.938000
C	10.60200 24.81800 6.466000
O	10.95600 23.84000 7.103000
N	10.17800 25.94300 7.070000
C	10.09100 26.25600 8.476000
H	9.874000 26.68900 6.497000
H	10.49500 25.96800 4.694000
H	9.572130 27.21869 8.594352
H	9.533425 25.51600 9.068883
H	11.09040 26.32976 8.929603
H	11.53119 24.41376 4.514093
H	9.792144 24.23767 4.611163

HSG-21-dimer.wfx


