%nprocs=4
%mem=2GB
#P pbepbe aug-cc-pvtz SCF=(Conver=6) Int=(grid=ultrafine) output=wfx
 
title
 
0 1
C	16.73700 21.75300 8.985000
C	18.06300 21.93100 8.570000
C	19.04400 21.01900 8.966000
C	18.68400 19.93600 9.775000
C	17.35900 19.76800 10.19300
C	16.38200 20.67900 9.796000
H	15.33000 20.56400 10.09500
H	17.07400 18.92500 10.82100
H	19.43700 19.21300 10.07200
H	20.08100 21.14800 8.627000
H	18.32800 22.76900 7.913000
C	15.63700 22.68100 8.524000
H	15.79700 23.65100 8.994000
H	14.68200 22.28100 8.905000
H	15.59011 22.79893 7.431346

HSG-16-monoB-unCP.wfx


