%nprocs=4
%mem=2GB
#P pbepbe aug-cc-pvtz SCF=(Conver=6) Int=(grid=ultrafine) output=wfx
 
title
 
-1 1
C	18.71400 22.19500 2.742000
H	18.37900 21.58700 3.577000
C	20.10300 21.67300 2.350000
O	20.78600 22.26500 1.513000
N	20.55800 20.55500 2.927000
H	20.07200 20.11800 3.686000
C	21.79700 19.92300 2.527000
H	22.55800 20.68900 2.504000
C	22.17900 18.80900 3.507000
H	21.42700 18.01600 3.405000
H	23.13400 18.39700 3.140000
C	22.26300 19.27700 4.986000
O	23.05600 20.18800 5.322000
O	21.52500 18.75500 5.855000
H	21.73715 19.49687 1.514662
H	18.77673 23.23495 3.094948
H	17.98479 22.13814 1.920400
C	18.05900 18.95300 5.945000
H	18.17800 18.65700 6.992000
O	19.08300 19.90900 5.610000
H	19.96600 19.54000 5.876000
H	17.07047 19.34799 5.667876
H	18.18777 18.06583 5.307547

HSG-5-dimer.wfx


