%nprocs=4
%mem=2GB
#P pbepbe aug-cc-pvtz SCF=(Conver=6) Int=(grid=ultrafine) output=wfx
 
title
 
0 1
C	14.25800 24.02900 5.093000
O	15.51000 24.53800 4.641000
H	15.42000 24.70300 3.667000
H	14.02700 23.02800 4.754000
H	13.45976 24.69373 4.731124
H	14.36576 23.85731 6.174161

HSG-4-monoB-unCP.wfx


