%nprocs=4
%mem=4GB
#p pbepbe aug-cc-pvtz output=wfx scf=(conver=6) int=(grid=ultrafine)

title

0 2
c -0.677977466162760 0.015924033467584 0.000000000000000
h -1.179936009780679 -0.209673437023553 0.928854269783335
h -1.179936009780679 -0.209673437023553 -0.928854269783335
n 0.713609813198390 -0.103376671050769 0.000000000000000
h 1.162119836262864 0.253399755815145 -0.828685877274046
h 1.162119836262864 0.253399755815145 0.828685877274046

ch2nh2.wfx

