%nprocs=4
%mem=4GB
#p pbepbe aug-cc-pvtz output=wfx scf=(conver=6) int=(grid=ultrafine)

title

0 1
h 1.059214003641621 0.827081855831319 0.000000000000000
n 0.616257656458240 -0.102294314840646 0.000000000000000
n -0.616257656458240 0.102294314840646 0.000000000000000
h -1.059214003641621 -0.827081855831319 0.000000000000000

n2h2.wfx

