%nprocs=4
%mem=4GB
#p pbepbe aug-cc-pvtz output=wfx scf=(conver=6) int=(grid=ultrafine)

title

0 1
n 0.000000000000000 0.000000000000000 0.291677474369041
h -0.467361945336846 -0.809494634847642 -0.097225824789675
h -0.467361945336846 0.809494634847642 -0.097225824789675
h 0.934723890673687 0.000000000000000 -0.097225824789675

nh3.wfx

