%nprocs=4
%mem=4GB
#p pbepbe aug-cc-pvtz output=wfx scf=(conver=6) int=(grid=ultrafine)

title

0 1
s 1.552342701913437 0.000000000000000 -0.921960853330287
s 1.068508199606927 0.000000000000000 0.921960853330287
s -1.068508199606927 0.000000000000000 0.921960853330287
s -1.552342701913437 0.000000000000000 -0.921960853330287

s4.wfx

