%nprocs=4
%mem=4GB
#p pbepbe aug-cc-pvtz output=wfx scf=(conver=6) int=(grid=ultrafine)

title

0 1
s 0.000000000000000 0.000000000000000 0.000000000000000
o 0.715475074235114 1.239239180124333 0.000000000000000
o 0.715475074235114 -1.239239180124333 0.000000000000000
o -1.430950148470228 0.000000000000000 0.000000000000000

so3.wfx

