%nprocs=4
%mem=4GB
#p pbepbe aug-cc-pvtz output=wfx scf=(conver=6) int=(grid=ultrafine)

title

0 1
h 0.628099138030795 0.628099138030795 -0.628099138030795
c 0.000000000000000 0.000000000000000 0.000000000000000
h -0.628099138030795 -0.628099138030795 -0.628099138030795
h 0.628099138030795 -0.628099138030795 0.628099138030795
h -0.628099138030795 0.628099138030795 0.628099138030795

ch4.wfx

