%nprocs=4
%mem=4GB
#p pbepbe aug-cc-pvtz output=wfx scf=(conver=6) int=(grid=ultrafine)

title

0 1
c 0.590547955378005 1.437714891443697 -0.512024389833325
h -0.344396974076976 1.997357849539996 -0.555829386525409
h 0.703645946817452 0.905508931808560 -1.454723319058433
h 1.405785893929193 2.155941837338473 -0.440925395295511
c 0.590547955378005 0.483545963670756 0.676488520537648
h 1.520767885350459 -0.089761993046569 0.686161519540994
h 0.575509956746634 1.063338919873846 1.600852450634024
c -0.590547955378005 -0.483545963670756 0.676488520537648
h -1.520767885350459 0.089761993046569 0.686161519540994
h -0.575509956746634 -1.063338919873846 1.600852450634024
c -0.590547955378005 -1.437714891443697 -0.512024389833325
h 0.344396974076976 -1.997357849539996 -0.555829386525409
h -1.405785893929193 -2.155941837338473 -0.440925395295511
h -0.703645946817452 -0.905508931808560 -1.454723319058433

B_G.wfx

