%nprocs=4
%mem=4GB
#p pbepbe aug-cc-pvtz output=wfx scf=(conver=6) int=(grid=ultrafine)

title

0 1
c -0.068236994639584 1.752412867859938 -1.074007319092740
c 0.823551937985597 1.387343895168884 0.109127591882902
c 0.068236994639584 0.762075942613399 1.288078502932626
c -0.068236994639584 -0.762075942613399 1.288078502932626
c -0.823551937985597 -1.387343895168884 0.109127591882902
c 0.068236994639584 -1.752412867859938 -1.074007319092740
h -0.811693938770768 2.488952812340997 -0.768953342239637
h -0.603605954402614 0.891078932918530 -1.466481289311620
h 0.511920961543130 2.184268835133787 -1.888884257714822
h 1.316255900637705 2.298795826761677 0.451467565777495
h 1.623775877679356 0.715854946099675 -0.209372384132629
h -0.929224929709041 1.208342908669604 1.343329498927779
h 0.573187956789264 1.038848921458398 2.215695432970646
h -0.573187956789264 -1.038848921458398 2.215695432970646
h 0.929224929709041 -1.208342908669604 1.343329498927779
h -1.623775877679356 -0.715854946099675 -0.209372384132629
h -1.316255900637705 -2.298795826761677 0.451467565777495
h -0.511920961543130 -2.184268835133787 -1.888884257714822
h 0.811693938770768 -2.488952812340997 -0.768953342239637
h 0.603605954402614 -0.891078932918530 -1.466481289311620

H_x+g-x+.wfx

