%nprocs=4
%mem=2GB
#p pbepbe aug-cc-pvtz output=wfx scf=(conver=6) int=(grid=ultrafine)
 
title
 
0 1
     9      0.000000     2.340835    -0.979943
     6      0.000000     1.186663    -0.307601
     6      0.000000    -1.212415     1.080627
     6      0.000000     0.000000    -1.027997
     6      0.000000     1.212415     1.080627
     6      0.000000     0.000000     1.765850
     6      0.000000    -1.186663    -0.307601
     1      0.000000     0.000000    -2.110073
     1      0.000000     2.163697     1.597716
     1      0.000000     0.000000     2.850176
     9      0.000000    -2.340835    -0.979943
     1      0.000000    -2.163697     1.597716
 
1-3-difluorobenzene.wfx

