%nprocs=4
%mem=2GB
#p pbepbe aug-cc-pvtz output=wfx scf=(conver=6) int=(grid=ultrafine)
 
title
 
0 1
     1     -1.275481    -0.184982    -2.033348
     6     -0.726586     0.253058    -1.193356
     6     -0.726586    -0.090471     1.256990
     6      1.423255     0.036832     0.114703
     6      0.726586     0.090471     1.256990
     6      0.726586    -0.253058    -1.193356
     6     -1.423255    -0.036832     0.114703
     1     -1.228906    -0.249615     2.206319
     1      2.504594     0.135733     0.116649
     1      1.228906     0.249615     2.206319
     1      0.738501    -1.342788    -1.359642
     1     -2.504594    -0.135733     0.116649
     1     -0.738501     1.342788    -1.359642
     1      1.275481     0.184982    -2.033348
 
1-3-cyclohexadiene.wfx

