%nprocs=4
%mem=2GB
#p pbepbe aug-cc-pvtz output=wfx scf=(conver=6) int=(grid=ultrafine)
 
title
 
0 1
C	0.000000 0.000000 2.058184
C	0.000000 0.000000 0.601790
C	0.000000 0.000000 -0.601790
C	0.000000 0.000000 -2.058184
H	0.000000 1.020352 2.457729
H	-0.883651 -0.510176 2.457729
H	0.883651 -0.510176 2.457729
H	0.000000 1.020352 -2.457729
H	0.883651 -0.510176 -2.457729
H	-0.883651 -0.510176 -2.457729

2-butyne.wfx

