%nprocs=4
%mem=2GB
#p pbepbe aug-cc-pvtz output=wfx scf=(conver=6) int=(grid=ultrafine)
 
title
 
0 1
     1      0.032812    -2.738586     0.000000
    16     -1.079751    -0.550938     0.000000
     6      0.000000     0.814578     0.000000
     1      2.137520     1.070999     0.000000
     1      2.387330    -1.548110     0.000000
     6      0.232293    -1.677941     0.000000
     6      1.434078    -1.034564     0.000000
     6      1.298096     0.385626     0.000000
     6     -0.519600     2.219834     0.000000
     1      0.317466     2.923393     0.000000
     1     -1.134156     2.431056     0.882141
     1     -1.134156     2.431056    -0.882141
 
2-methyl-thiophene.wfx

