%nprocs=4
%mem=2GB
#p pbepbe aug-cc-pvtz output=wfx scf=(conver=6) int=(grid=ultrafine)
 
title
 
0 1
     6     -0.081182    -0.183951     0.000000
     6     -0.329622     0.663678     1.262826
     6     -0.329622     0.663678    -1.262826
     6     -0.329622    -0.117527     2.580998
     6     -0.329622    -0.117527    -2.580998
     6      1.319386    -0.813779     0.000000
     1     -0.819849    -1.001029     0.000000
     1     -1.297570     1.169957     1.155093
     1     -1.297570     1.169957    -1.155093
     1      0.424055     1.462398     1.310627
     1      0.424055     1.462398    -1.310627
     1     -0.583635     0.536267     3.421495
     1     -0.583635     0.536267    -3.421495
     1     -1.066097    -0.929018     2.559187
     1     -1.066097    -0.929018    -2.559187
     1      0.646469    -0.561715     2.797965
     1      0.646469    -0.561715    -2.797965
     1      2.093676    -0.036246     0.000000
     1      1.480719    -1.442968     0.879850
     1      1.480719    -1.442968    -0.879850
 
3-methylpentane.wfx

