%nprocs=4
%mem=2GB
#p pbepbe aug-cc-pvtz output=wfx scf=(conver=6) int=(grid=ultrafine)
 
title
 
0 1
C	0.000000 0.546177 0.000000
C	1.490995 0.722365 0.000000
Cl	-0.458320 -1.228046 0.000000
O	-0.839369 1.376054 0.000000
H	1.727644 1.787401 0.000000
H	1.916389 0.234846 0.880975
H	1.916389 0.234846 -0.880975

acetyl-chloride.wfx

