%nprocs=4
%mem=2GB
#p pbepbe aug-cc-pvtz output=wfx scf=(conver=6) int=(grid=ultrafine)
 
title
 
0 1
     8      1.201911     0.394061     0.000000
     6      0.000000     0.461828     0.000000
     1     -0.515182     1.450292     0.000000
     6     -0.928752    -0.725368     0.000000
     1     -0.361448    -1.657339     0.000000
     1     -1.583072    -0.682101     0.879126
     1     -1.583072    -0.682101    -0.879126
 
acetaldehyde.wfx

