%nprocs=4
%mem=2GB
#p pbepbe aug-cc-pvtz output=wfx scf=(conver=6) int=(grid=ultrafine)
 
title
 
0 1
     6      0.000000     0.158043     0.000000
     8      0.194257     1.345976     0.000000
     8     -1.245146    -0.377942     0.000000
     1     -1.859053     0.371753     0.000000
     6      1.057005    -0.916388     0.000000
     1      2.044007    -0.456680     0.000000
     1      0.940063    -1.554642     0.880447
     1      0.940063    -1.554642    -0.880447
 
acetic-acid.wfx

