%nprocs=4
%mem=2GB
#p pbepbe aug-cc-pvtz output=wfx scf=(conver=6) int=(grid=ultrafine)
 
title
 
0 1
C	-1.373094 -0.296883 -0.000594
C	0.081087 0.154457 -0.007551
O	0.413797 1.321871 0.004397
N	0.994176 -0.865791 -0.027264
H	1.966627 -0.628010 0.080985
H	0.722957 -1.827051 0.082012
H	-1.541784 -1.155894 -0.656737
H	-1.665543 -0.585439 1.015056
H	-1.999817 0.536525 -0.316769

acetamide.wfx

