%nprocs=4
%mem=2GB
#p pbepbe aug-cc-pvtz output=wfx scf=(conver=6) int=(grid=ultrafine)
 
title
 
0 1
C	0.000000 0.187676 0.000000
O	0.167070 1.360649 0.000000
F	-1.248134 -0.329053 0.000000
C	1.019989 -0.912028 0.000000
H	2.022938 -0.487877 0.000000
H	0.876888 -1.544863 0.880608
H	0.876888 -1.544863 -0.880608

acetyl-fluoride.wfx

