%nprocs=4
%mem=2GB
#p pbepbe aug-cc-pvtz output=wfx scf=(conver=6) int=(grid=ultrafine)
 
title
 
0 1
C	1.316706 0.985198 0.000000
C	0.000000 0.769897 0.000000
C	-0.577466 -0.534082 0.000000
H	2.028491 0.167905 0.000000
H	1.714374 1.993335 0.000000
H	-0.705265 1.595679 0.000000
N	-1.067578 -1.583285 0.000000

acrylonitrile.wfx

