%nprocs=4
%mem=2GB
#p pbepbe aug-cc-pvtz output=wfx scf=(conver=6) int=(grid=ultrafine)
 
title
 
0 1
    13      0.000000     0.000000     0.000000
    17      0.000000     2.080077     0.000000
    17      1.801400    -1.040039     0.000000
    17     -1.801400    -1.040039     0.000000
 
alcl3.wfx

