%nprocs=4
%mem=2GB
#p pbepbe aug-cc-pvtz output=wfx scf=(conver=6) int=(grid=ultrafine)
 
title
 
0 1
    13      0.000000     0.000000     0.000000
     9      0.000000     1.631491     0.000000
     9      1.412913    -0.815746     0.000000
     9     -1.412913    -0.815746     0.000000
 
alf3.wfx

