%nprocs=4
%mem=2GB
#p pbepbe aug-cc-pvtz output=wfx scf=(conver=6) int=(grid=ultrafine)
 
title
 
0 1
     6      0.004487     0.936672     0.000000
     6      0.003118     0.220651     1.205191
     6      0.003118     0.220651    -1.205191
     6      0.003118    -1.169362     1.199884
     6      0.003118    -1.169362    -1.199884
     6      0.002965    -1.877721     0.000000
     7      0.067048     2.333270     0.000000
     1     -0.301991     2.769645    -0.832712
     1     -0.301991     2.769645     0.832712
     1      0.000443    -1.702453     2.145482
     1      0.000443    -1.702453    -2.145482
     1      0.001728    -2.961723     0.000000
     1      0.006248     0.762639     2.146684
     1      0.006248     0.762639    -2.146684
 
aniline.wfx

