%nprocs=4
%mem=2GB
#p pbepbe aug-cc-pvtz output=wfx scf=(conver=6) int=(grid=ultrafine)
 
title
 
0 1
     6     -0.038191    -0.396782     0.741555
     7     -0.038191     0.874288     0.000000
     6     -0.038191    -0.396782    -0.741555
     1      0.897250     1.271957     0.000000
     1     -0.954816    -0.606894     1.285159
     1     -0.954816    -0.606894    -1.285159
     1      0.869001    -0.708403     1.252752
     1      0.869001    -0.708403    -1.252752
 
aziridine.wfx

