%nprocs=4
%mem=2GB
#p pbepbe aug-cc-pvtz output=wfx scf=(conver=6) int=(grid=ultrafine)
 
title
 
0 1
     6      0.000000     1.393557     0.000000
     6      1.206855     0.696778     0.000000
     6      1.206855    -0.696778     0.000000
     6      0.000000    -1.393557     0.000000
     6     -1.206855    -0.696778     0.000000
     6     -1.206855     0.696778     0.000000
     1      0.000000     2.478749     0.000000
     1      2.146660     1.239375     0.000000
     1      2.146660    -1.239375     0.000000
     1      0.000000    -2.478749     0.000000
     1     -2.146660    -1.239375     0.000000
     1     -2.146660     1.239375     0.000000
 
benzene.wfx

