%nprocs=4
%mem=2GB
#p pbepbe aug-cc-pvtz output=wfx scf=(conver=6) int=(grid=ultrafine)
 
title
 
0 1
     6     -0.424068     1.837402     0.000000
     7     -1.111347     2.765674     0.000000
     6      0.424068     0.648281     0.000000
     1      1.074107     0.670572     0.880045
     1      1.074107     0.670572    -0.880045
     6     -0.424068    -0.648281     0.000000
     1     -1.074107    -0.670572     0.880045
     6      0.424068    -1.837402     0.000000
     1     -1.074107    -0.670572    -0.880045
     7      1.111347    -2.765674     0.000000
 
butanedinitrile.wfx

