%nprocs=4
%mem=2GB
#p pbepbe aug-cc-pvtz output=wfx scf=(conver=6) int=(grid=ultrafine)
 
title
 
0 1
H	1.946937 0.251433 0.879965
C	1.496343 0.723157 0.000000
H	1.704087 1.794001 0.000000
C	0.000000 0.496582 0.000000
H	1.946937 0.251433 -0.879965
O	-0.810480 1.396456 0.000000
C	-0.418702 -0.898086 0.000000
C	-0.752312 -2.054671 0.000000
H	-1.066096 -3.070409 0.000000

butyn-3-one.wfx

