%nprocs=4
%mem=2GB
#p pbepbe aug-cc-pvtz output=wfx scf=(conver=6) int=(grid=ultrafine)
 
title
 
0 1
     6      0.000000     0.000000     0.774064
     6      0.000000     0.000000    -0.774064
     9      0.000000     1.251306     1.222131
     9     -1.083663    -0.625653     1.222131
     9      1.083663    -0.625653     1.222131
     9      0.000000    -1.251306    -1.222131
     9     -1.083663     0.625653    -1.222131
     9      1.083663     0.625653    -1.222131
 
c2f6.wfx

