%nprocs=4
%mem=2GB
#p pbepbe aug-cc-pvtz output=wfx scf=(conver=6) int=(grid=ultrafine)
 
title
 
0 1
     6      0.000000     0.000000     0.599455
     6      0.000000     0.000000    -0.599455
     1      0.000000     0.000000    -1.661636
     1      0.000000     0.000000     1.661636
 
c2h2.wfx

