%nprocs=4
%mem=2GB
#p pbepbe aug-cc-pvtz output=wfx scf=(conver=6) int=(grid=ultrafine)
 
title
 
0 1
     6      0.000000     0.000000     0.663625
     6      0.000000     0.000000    -0.663625
     1      0.000000     0.921419     1.237947
     1      0.000000    -0.921419     1.237947
     1      0.000000     0.921419    -1.237947
     1      0.000000    -0.921419    -1.237947
 
c2h4.wfx

