%nprocs=4
%mem=2GB
#p pbepbe aug-cc-pvtz output=wfx scf=(conver=6) int=(grid=ultrafine)
 
title
 
0 1
     6      0.000000     0.000000     0.765057
     6      0.000000     0.000000    -0.765057
     1      0.000000     1.019538     1.164020
     1     -0.882946    -0.509769     1.164020
     1      0.882946    -0.509769     1.164020
     1      0.000000    -1.019538    -1.164020
     1     -0.882946     0.509769    -1.164020
     1      0.882946     0.509769    -1.164020
 
c2h6.wfx

