%nprocs=4
%mem=2GB
#p pbepbe aug-cc-pvtz output=wfx scf=(conver=6) int=(grid=ultrafine)
 
title
 
0 2
     6      0.000000     0.000000     0.323309
     9      0.000000     1.257269    -0.071846
     9      1.088827    -0.628635    -0.071846
     9     -1.088827    -0.628635    -0.071846
 
cf3.wfx

