%nprocs=4
%mem=2GB
#p pbepbe aug-cc-pvtz output=wfx scf=(conver=6) int=(grid=ultrafine)
 
title
 
0 1
     6      0.000000     0.000000    -0.327611
     6      0.000000     0.000000     1.158088
     9      0.000000     1.248584    -0.783553
     9      1.081306    -0.624292    -0.783553
     9     -1.081306    -0.624292    -0.783553
     7      0.000000     0.000000     2.310437
 
cf3cn.wfx

