%nprocs=4
%mem=2GB
#p pbepbe aug-cc-pvtz output=wfx scf=(conver=6) int=(grid=ultrafine)
 
title
 
0 1
     6      0.000000     0.000000    -0.366486
    17      0.000000     0.000000     1.420125
     9      0.000000     1.243636    -0.812712
     9      1.077021    -0.621818    -0.812712
     9     -1.077021    -0.621818    -0.812712
 
cf3cl.wfx

