%nprocs=4
%mem=2GB
#p pbepbe aug-cc-pvtz output=wfx scf=(conver=6) int=(grid=ultrafine)
 
title
 
0 1
     6      0.000000     0.000000     0.000000
     9      0.762948     0.762948     0.762948
     9     -0.762948    -0.762948     0.762948
     9     -0.762948     0.762948    -0.762948
     9      0.762948    -0.762948    -0.762948
 
cf4.wfx

