%nprocs=4
%mem=2GB
#p pbepbe aug-cc-pvtz output=wfx scf=(conver=6) int=(grid=ultrafine)
 
title
 
0 2
     6      0.000000     0.000000     0.000000
     1      0.000000     1.081259     0.000000
     1      0.936398    -0.540630     0.000000
     1     -0.936398    -0.540630     0.000000
 
ch3.wfx

