%nprocs=4
%mem=2GB
#p pbepbe aug-cc-pvtz output=wfx scf=(conver=6) int=(grid=ultrafine)
 
title
 
0 2
     6     -0.966284    -0.666595     0.000000
     6      0.000000     0.501222     0.000000
     1     -0.436882    -1.625629     0.000000
     1     -1.610854    -0.586971     0.880027
     1     -1.610854    -0.586971    -0.880027
     8      1.182037     0.473976     0.000000
 
ch3co.wfx

