%nprocs=4
%mem=2GB
#p pbepbe aug-cc-pvtz output=wfx scf=(conver=6) int=(grid=ultrafine)
 
title
 
0 2
     6      0.991794    -0.608566     0.000000
     6      0.000000     0.588065     0.000000
     8     -1.254290     0.049476     0.000000
     1      0.194790     1.194438     0.901295
     1      0.194790     1.194438    -0.901295
     1      2.011619    -0.214905     0.000000
     1      0.841177    -1.223384     0.889458
     1      0.841177    -1.223384    -0.889458
 
ch3ch2o.wfx

