%nprocs=4
%mem=2GB
#p pbepbe aug-cc-pvtz output=wfx scf=(conver=6) int=(grid=ultrafine)
 
title
 
0 1
     6      0.000000     0.000000    -1.136781
    17      0.000000     0.000000     0.662178
     1      0.000000     1.033705    -1.478781
     1      0.895215    -0.516852    -1.478781
     1     -0.895215    -0.516852    -1.478781
 
ch3cl.wfx

