%nprocs=4
%mem=2GB
#p pbepbe aug-cc-pvtz output=wfx scf=(conver=6) int=(grid=ultrafine)
 
title
 
0 2
     6     -0.011148    -0.571469     0.000000
     8     -0.011148     0.790976     0.000000
     1      1.059118    -0.867734     0.000000
     1     -0.451525    -1.015630     0.908538
     1     -0.451525    -1.015630    -0.908538
 
ch3o.wfx

