%nprocs=4
%mem=2GB
#p pbepbe aug-cc-pvtz output=wfx scf=(conver=6) int=(grid=ultrafine)
 
title
 
0 2
     6     -0.004498     1.110498     0.000000
    16     -0.004498    -0.694219     0.000000
     1      1.048644     1.419582     0.000000
     1     -0.474842     1.512468     0.899830
     1     -0.474842     1.512468    -0.899830
 
ch3s.wfx

