%nprocs=4
%mem=2GB
#p pbepbe aug-cc-pvtz output=wfx scf=(conver=6) int=(grid=ultrafine)
 
title
 
0 1
     6      0.000000     0.000000     0.456842
     1      0.000000     0.000000     1.541377
    17      0.000000     1.696797    -0.083969
    17      1.469469    -0.848398    -0.083969
    17     -1.469469    -0.848398    -0.083969
 
chcl3.wfx

