%nprocs=4
%mem=2GB
#p pbepbe aug-cc-pvtz output=wfx scf=(conver=6) int=(grid=ultrafine)
 
title
 
0 1
    16      0.621729     0.759789     0.739933
    16     -0.621729    -0.759789     0.739933
    17      0.000000     2.157671    -0.696408
    17      0.000000    -2.157671    -0.696408
 
cl2s2.wfx

