%nprocs=4
%mem=2GB
#p pbepbe aug-cc-pvtz output=wfx scf=(conver=6) int=(grid=ultrafine)
 
title
 
0 1
     7      0.000000     0.000000     1.845904
     6      0.000000     0.000000     0.687841
     6      0.000000     0.000000    -0.687841
     7      0.000000     0.000000    -1.845904
 
cyanogen.wfx

