%nprocs=4
%mem=2GB
#p pbepbe aug-cc-pvtz output=wfx scf=(conver=6) int=(grid=ultrafine)
 
title
 
0 1
C	0.000000 0.000000 0.860518
C	0.000000 0.645314 -0.500672
C	0.000000 -0.645314 -0.500672
H	-0.911822 0.000000 1.462376
H	0.911822 0.000000 1.462376
H	0.000000 1.576073 -1.039899
H	0.000000 -1.576073 -1.039899

cyclopropene.wfx

