%nprocs=4
%mem=2GB
#p pbepbe aug-cc-pvtz output=wfx scf=(conver=6) int=(grid=ultrafine)
 
title
 
0 1
     6      0.000000     0.000000     0.929980
     8      0.000000     0.000000     2.133419
     6      0.000000     1.242968     0.029815
     6      0.000000    -1.242968     0.029815
     6      0.300361    -0.712400    -1.380176
     6     -0.300361     0.712400    -1.380176
     1      1.006956     1.678780     0.081938
     1     -1.006956    -1.678780     0.081938
     1     -0.693217     1.998847     0.405956
     1      0.693217    -1.998847     0.405956
     1      1.384427    -0.656375    -1.534970
     1     -1.384427     0.656375    -1.534970
     1     -0.107697    -1.342092    -2.174378
     1      0.107697     1.342092    -2.174378
 
cyclopentanone.wfx

