%nprocs=4
%mem=2GB
#p pbepbe aug-cc-pvtz output=wfx scf=(conver=6) int=(grid=ultrafine)
 
title
 
0 1
C	0.000000 0.000000 1.307273
C	-0.328285 0.694302 -1.030424
C	0.328285 -0.694302 -1.030424
C	0.000000 1.242236 0.371429
C	0.000000 -1.242236 0.371429
H	0.875910 0.006649 1.962450
H	-0.875910 -0.006649 1.962450
H	0.025840 1.343754 -1.836529
H	-0.025840 -1.343754 -1.836529
H	-1.414042 0.588408 -1.151328
H	1.414042 -0.588408 -1.151328
H	0.994642 1.701931 0.359542
H	-0.994642 -1.701931 0.359542
H	-0.700681 2.015745 0.698014
H	0.700681 -2.015745 0.698014

cyclopentane.wfx

