%nprocs=4
%mem=2GB
#p pbepbe aug-cc-pvtz output=wfx scf=(conver=6) int=(grid=ultrafine)
 
title
 
0 1
C	0.000000 1.084431 0.124631
C	0.000000 -1.084431 0.124631
C	-1.084431 0.000000 -0.124631
C	1.084431 0.000000 -0.124631
H	0.000000 1.965057 -0.522570
H	0.000000 1.421868 1.165508
H	0.000000 -1.965057 -0.522570
H	0.000000 -1.421868 1.165508
H	-1.965057 0.000000 0.522570
H	-1.421868 0.000000 -1.165508
H	1.965057 0.000000 0.522570
H	1.421868 0.000000 -1.165508

cyclobutane.wfx

