%nprocs=4
%mem=2GB
#p pbepbe aug-cc-pvtz output=wfx scf=(conver=6) int=(grid=ultrafine)
 
title
 
0 1
C	-0.026899 -0.221299 1.212998
N	-0.026899 0.582750 0.000000
C	-0.026899 -0.221299 -1.212998
H	0.797964 -0.955799 1.272568
H	0.032090 0.430599 2.089811
H	-0.967068 -0.781746 1.278027
H	0.785113 1.190228 0.000000
H	0.797964 -0.955799 -1.272568
H	0.032090 0.430599 -2.089811
H	-0.967068 -0.781746 -1.278027

dimethylamine.wfx

