%nprocs=4
%mem=2GB
#p pbepbe aug-cc-pvtz output=wfx scf=(conver=6) int=(grid=ultrafine)
 
title
 
0 1
     6      0.000000     1.390269    -0.513033
    16      0.000000     0.000000     0.660214
     6      0.000000    -1.390269    -0.513033
     1      0.000000     2.307367     0.079562
     1      0.894282     1.375034    -1.141541
     1     -0.894282     1.375034    -1.141541
     1      0.000000    -2.307367     0.079562
     1     -0.894282    -1.375034    -1.141541
     1      0.894282    -1.375034    -1.141541
 
dimethyl-sulfide.wfx

