%nprocs=4
%mem=2GB
#p pbepbe aug-cc-pvtz output=wfx scf=(conver=6) int=(grid=ultrafine)
 
title
 
0 1
    16      0.000085     0.244306    -0.437663
     8      0.000966     1.485238     0.387571
     6      1.357278    -0.814835     0.178699
     6     -1.358234    -0.813334     0.178791
     1      1.268849    -0.915949     1.263220
     1     -2.290893    -0.303915    -0.069922
     1      1.321503    -1.790232    -0.313209
     1      2.290528    -0.307113    -0.071356
     1     -1.324199    -1.788047    -0.314678
     1     -1.269148    -0.916540     1.263046
 
dimethylsulfoxide.wfx

