%nprocs=4
%mem=2GB
#p pbepbe aug-cc-pvtz output=wfx scf=(conver=6) int=(grid=ultrafine)
 
title
 
0 1
O	0.000000 0.000000 0.329071
C	0.000000 1.170230 -0.369511
C	0.000000 -1.170230 -0.369511
C	0.000000 2.352048 0.233278
C	0.000000 -2.352048 0.233278
H	0.000000 1.057054 -1.451952
H	0.000000 -1.057054 -1.451952
H	0.000000 3.256400 -0.359452
H	0.000000 -3.256400 -0.359452
H	0.000000 2.439290 1.312517
H	0.000000 -2.439290 1.312517

divinyl-ether.wfx

