%nprocs=4
%mem=2GB
#p pbepbe aug-cc-pvtz output=wfx scf=(conver=6) int=(grid=ultrafine)
 
title
 
0 1
     8      0.000000     0.000000     0.329071
     6      0.000000     1.170230    -0.369511
     6      0.000000    -1.170230    -0.369511
     6      0.000000     2.352048     0.233278
     6      0.000000    -2.352048     0.233278
     1      0.000000     1.057054    -1.451952
     1      0.000000    -1.057054    -1.451952
     1      0.000000     3.256400    -0.359452
     1      0.000000    -3.256400    -0.359452
     1      0.000000     2.439290     1.312517
     1      0.000000    -2.439290     1.312517
 
divinyl-ether.wfx

