%nprocs=4
%mem=2GB
#p pbepbe aug-cc-pvtz output=wfx scf=(conver=6) int=(grid=ultrafine)
 
title
 
0 1
C	1.171409 -0.413467 0.000000
C	0.000000 0.554551 0.000000
O	-1.198266 -0.210054 0.000000
H	-1.942330 0.398846 0.000000
H	0.053228 1.206868 0.886522
H	0.053228 1.206868 -0.886522
H	2.121074 0.129981 0.000000
H	1.136237 -1.054317 0.885805
H	1.136237 -1.054317 -0.885805

ethanol.wfx

