%nprocs=4
%mem=2GB
#p pbepbe aug-cc-pvtz output=wfx scf=(conver=6) int=(grid=ultrafine)
 
title
 
0 1
O	0.000000 0.000000 1.157167
C	0.000000 1.091856 0.347277
C	0.000000 -1.091856 0.347277
C	0.000000 0.717265 -0.957925
C	0.000000 -0.717265 -0.957925
H	0.000000 2.044972 0.849510
H	0.000000 -2.044972 0.849510
H	0.000000 1.372975 -1.814290
H	0.000000 -1.372975 -1.814290

furan.wfx

