%nprocs=4
%mem=2GB
#p pbepbe aug-cc-pvtz output=wfx scf=(conver=6) int=(grid=ultrafine)
 
title
 
0 1
     6     -0.047994     1.160676     0.000000
    16     -0.047994    -0.668905     0.000000
     1      1.287605    -0.835974     0.000000
     1     -1.096853     1.462323     0.000000
     1      0.432553     1.556037     0.895739
     1      0.432553     1.556037    -0.895739
 
h3csh.wfx

