%nprocs=4
%mem=2GB
#p pbepbe aug-cc-pvtz output=wfx scf=(conver=6) int=(grid=ultrafine)
 
title
 
0 1
     6      0.000000     0.000000     0.372697
     1      0.000000     0.000000     1.471975
     6      0.000000     1.460841    -0.095724
     1      0.000000     1.519584    -1.190992
     1     -0.885137     1.995765     0.264644
     1      0.885137     1.995765     0.264644
     6      1.265126    -0.730421    -0.095724
     1      1.315999    -0.759792    -1.190992
     1      2.170952    -0.231331     0.264644
     1      1.285815    -1.764434     0.264644
     6     -1.265126    -0.730421    -0.095724
     1     -1.315999    -0.759792    -1.190992
     1     -1.285815    -1.764434     0.264644
     1     -2.170952    -0.231331     0.264644
 
isobutane.wfx

