%nprocs=4
%mem=2GB
#p pbepbe aug-cc-pvtz output=wfx scf=(conver=6) int=(grid=ultrafine)
 
title
 
0 1
C	0.000000 0.000000 0.372697
H	0.000000 0.000000 1.471975
C	0.000000 1.460841 -0.095724
H	0.000000 1.519584 -1.190992
H	-0.885137 1.995765 0.264644
H	0.885137 1.995765 0.264644
C	1.265126 -0.730421 -0.095724
H	1.315999 -0.759792 -1.190992
H	2.170952 -0.231331 0.264644
H	1.285815 -1.764434 0.264644
C	-1.265126 -0.730421 -0.095724
H	-1.315999 -0.759792 -1.190992
H	-1.285815 -1.764434 0.264644
H	-2.170952 -0.231331 0.264644

isobutane.wfx

