%nprocs=4
%mem=2GB
#p pbepbe aug-cc-pvtz output=wfx scf=(conver=6) int=(grid=ultrafine)
 
title
 
0 1
H	2.390360 -0.685712 1.523679
C	2.455046 -0.649671 0.432437
H	3.369528 -0.140658 0.130521
C	1.260601 0.083456 -0.132398
H	2.465463 -1.682944 0.074310
O	1.312621 1.080916 -0.808712
O	0.115829 -0.534978 0.222199
C	-1.127280 0.050146 -0.251403
C	-1.550929 1.178812 0.682853
C	-2.131836 -1.090835 -0.318151
H	-0.937034 0.456240 -1.248803
H	-0.800909 1.972525 0.688744
H	-1.684031 0.804884 1.703161
H	-2.500515 1.607227 0.347048
H	-3.089953 -0.725765 -0.699850
H	-2.298433 -1.520941 0.674497
H	-1.775693 -1.883808 -0.981231

isopropyl-acetate.wfx

