%nprocs=4
%mem=2GB
#p pbepbe aug-cc-pvtz output=wfx scf=(conver=6) int=(grid=ultrafine)
 
title
 
0 1
     8      0.038706     1.368897    -0.162149
     6     -0.001654     0.043966     0.364364
     1      0.883304     1.758954     0.084134
     1      0.005996     0.082126     1.467178
     6     -1.326286    -0.557383    -0.089657
     6      1.202419    -0.775249    -0.103035
     1     -1.358423    -0.621773    -1.182132
     1      1.220167    -0.835468    -1.196091
     1     -2.159936     0.068449     0.239838
     1      2.141926    -0.317586     0.229035
     1     -1.459027    -1.561757     0.323191
     1      1.169479    -1.792117     0.302006
 
isopropanol.wfx

