%nprocs=4
%mem=2GB
#p pbepbe aug-cc-pvtz output=wfx scf=(conver=6) int=(grid=ultrafine)
 
title
 
0 1
C	0.000000 0.000000 -1.176766
C	0.000000 0.000000 0.280353
N	0.000000 0.000000 1.435371
H	0.000000 1.025304 -1.556374
H	0.887939 -0.512652 -1.556374
H	-0.887939 -0.512652 -1.556374

methyl-cyanide.wfx

