%nprocs=4
%mem=2GB
#p pbepbe aug-cc-pvtz output=wfx scf=(conver=6) int=(grid=ultrafine)
 
title
 
0 1
H	2.373404 -0.190435 -0.881166
C	1.744711 -0.364994 0.000000
H	1.434688 -1.412053 -0.000053
C	0.552725 0.559388 -0.000002
H	2.373346 -0.190509 0.881222
C	-0.692186 0.173759 0.000000
H	0.762826 1.628833 0.000001
C	-1.935665 -0.213362 0.000000
H	-2.480884 -0.382296 -0.924941
H	-2.480887 -0.382289 0.924941

methyl-allene.wfx

