%nprocs=4
%mem=2GB
#p pbepbe aug-cc-pvtz output=wfx scf=(conver=6) int=(grid=ultrafine)
 
title
 
0 1
     6     -0.929688    -0.091709     0.000000
     8     -0.719945    -1.273300     0.000000
     8      0.000000     0.871870     0.000000
     1     -1.924908     0.378934     0.000000
     6      1.360816     0.410239     0.000000
     1      1.977618     1.308323     0.000000
     1      1.560042    -0.193504     0.888655
     1      1.560042    -0.193504    -0.888655
 
methyl-formate.wfx

