%nprocs=4
%mem=2GB
#p pbepbe aug-cc-pvtz output=wfx scf=(conver=6) int=(grid=ultrafine)
 
title
 
0 1
C	0.000000 0.000000 -1.245569
Si	0.000000 0.000000 0.635363
H	0.000000 -1.021936 -1.636237
H	-0.885023 0.510968 -1.636237
H	0.885023 0.510968 -1.636237
H	0.000000 1.389335 1.162347
H	-1.203199 -0.694667 1.162347
H	1.203199 -0.694667 1.162347

methylsilane.wfx

