%nprocs=4
%mem=2GB
#p pbepbe aug-cc-pvtz output=wfx scf=(conver=6) int=(grid=ultrafine)
 
title
 
0 1
     6      0.000000     0.000000     0.315534
     6      0.000000     1.282210    -0.523324
     6      0.000000    -1.282210    -0.523324
     6      0.000000     2.557358     0.324101
     6      0.000000    -2.557358     0.324101
     1     -0.877053     0.000000     0.978289
     1      0.877053     0.000000     0.978289
     1     -0.876728     1.281244    -1.184661
     1      0.876728     1.281244    -1.184661
     1      0.876728    -1.281244    -1.184661
     1     -0.876728    -1.281244    -1.184661
     1      0.883420     2.602570     0.970856
     1     -0.883420     2.602570     0.970856
     1     -0.883420    -2.602570     0.970856
     1      0.883420    -2.602570     0.970856
     1      0.000000     3.455278    -0.301947
     1      0.000000    -3.455278    -0.301947
 
n-pentane.wfx

