%nprocs=4
%mem=2GB
#p pbepbe aug-cc-pvtz output=wfx scf=(conver=6) int=(grid=ultrafine)
 
title
 
0 1
     6      0.000000     0.000000     0.000000
     6      0.888553     0.888553     0.888553
     6     -0.888553    -0.888553     0.888553
     6     -0.888553     0.888553    -0.888553
     6      0.888553    -0.888553    -0.888553
     1      1.534264     1.534264     0.282953
     1      0.282953     1.534264     1.534264
     1      1.534264     0.282953     1.534264
     1     -1.534264    -1.534264     0.282953
     1     -0.282953    -1.534264     1.534264
     1     -1.534264    -0.282953     1.534264
     1     -1.534264     0.282953    -1.534264
     1     -1.534264     1.534264    -0.282953
     1     -0.282953     1.534264    -1.534264
     1      0.282953    -1.534264    -1.534264
     1      1.534264    -0.282953    -1.534264
     1      1.534264    -1.534264    -0.282953
 
neopentane.wfx

