%nprocs=4
%mem=2GB
#p pbepbe aug-cc-pvtz output=wfx scf=(conver=6) int=(grid=ultrafine)
 
title
 
0 1
     6     -1.323234    -0.000916    -0.003404
     7      0.175868     0.000018    -0.009184
     8      0.730132    -1.087065     0.002536
     8      0.728333     1.087998     0.002525
     1     -1.635064     0.008305     1.042616
     1     -1.662595     0.901697    -0.506801
     1     -1.661729    -0.912094    -0.491592
 
nitromethane.wfx

