%nprocs=4
%mem=2GB
#p pbepbe aug-cc-pvtz output=wfx scf=(conver=6) int=(grid=ultrafine)
 
title
 
0 1
C	0.000000 0.733437 -0.370244
O	0.000000 0.000000 0.852327
C	0.000000 -0.733437 -0.370244
H	0.919692 1.271961 -0.593921
H	-0.919692 1.271961 -0.593921
H	-0.919692 -1.271961 -0.593921
H	0.919692 -1.271961 -0.593921

oxirane.wfx

