%nprocs=4
%mem=2GB
#p pbepbe aug-cc-pvtz output=wfx scf=(conver=6) int=(grid=ultrafine)
 
title
 
0 1
    15      0.000000     0.000000     0.000000
    17      0.000000     0.000000     2.156382
    17      0.000000     2.055490     0.000000
    17      0.000000     0.000000    -2.156382
    17      1.780107    -1.027745     0.000000
    17     -1.780107    -1.027745     0.000000
 
pcl5.wfx

