%nprocs=4
%mem=2GB
#p pbepbe aug-cc-pvtz output=wfx scf=(conver=6) int=(grid=ultrafine)
 
title
 
0 1
    15      0.000000     0.000000     0.126411
     1      0.000000     1.191339    -0.632056
     1      1.031730    -0.595669    -0.632056
     1     -1.031730    -0.595669    -0.632056
 
ph3.wfx

