%nprocs=4
%mem=2GB
#p pbepbe aug-cc-pvtz output=wfx scf=(conver=6) int=(grid=ultrafine)
 
title
 
0 1
C	1.290384 0.153619 0.000000
C	0.000000 0.472966 0.000000
H	1.621664 -0.881412 0.000000
H	2.068023 0.909992 0.000000
H	-0.283000 1.525165 0.000000
C	-1.136060 -0.506272 0.000000
H	-0.776177 -1.539222 0.000000
H	-1.778229 -0.368201 0.878776
H	-1.778229 -0.368201 -0.878776

propylene.wfx

