%nprocs=4
%mem=2GB
#p pbepbe aug-cc-pvtz output=wfx scf=(conver=6) int=(grid=ultrafine)
 
title
 
0 1
     6      0.000000     0.000000     0.586532
     6      0.000000     1.276095    -0.259780
     6      0.000000    -1.276095    -0.259780
     1     -0.876334     0.000000     1.246830
     1      0.876334     0.000000     1.246830
     1      0.000000     2.174315     0.365942
     1      0.000000    -2.174315     0.365942
     1      0.883356     1.320655    -0.906844
     1     -0.883356     1.320655    -0.906844
     1     -0.883356    -1.320655    -0.906844
     1      0.883356    -1.320655    -0.906844
 
propane.wfx

