%nprocs=4
%mem=2GB
#p pbepbe aug-cc-pvtz output=wfx scf=(conver=6) int=(grid=ultrafine)
 
title
 
0 1
     6      0.000000     0.000000     0.218713
     6      0.000000     0.000000     1.420178
     6      0.000000     0.000000    -1.236463
     1      0.000000     0.000000     2.481639
     1      0.000000     1.021268    -1.632069
     1      0.884444    -0.510634    -1.632069
     1     -0.884444    -0.510634    -1.632069
 
propyne.wfx

