%nprocs=4
%mem=2GB
#p pbepbe aug-cc-pvtz output=wfx scf=(conver=6) int=(grid=ultrafine)
 
title
 
0 1
     1      0.000000     2.064186     1.253898
     7      0.000000     0.000000    -1.405294
     7      0.000000     0.000000     1.405294
     6      0.000000     1.130781    -0.696665
     6      0.000000    -1.130781    -0.696665
     6      0.000000    -1.130781     0.696665
     6      0.000000     1.130781     0.696665
     1      0.000000     2.064186    -1.253898
     1      0.000000    -2.064186    -1.253898
     1      0.000000    -2.064186     1.253898
 
pyrazine.wfx

