%nprocs=4
%mem=2GB
#p pbepbe aug-cc-pvtz output=wfx scf=(conver=6) int=(grid=ultrafine)
 
title
 
0 1
C	0.000000 0.000000 -1.306414
C	0.000000 0.000000 1.352654
N	0.000000 1.195848 -0.714576
N	0.000000 -1.195848 -0.714576
C	0.000000 1.181795 0.620941
C	0.000000 -1.181795 0.620941
H	0.000000 0.000000 -2.394044
H	0.000000 0.000000 2.436170
H	0.000000 2.150200 1.116602
H	0.000000 -2.150200 1.116602

pyrimidine.wfx

