%nprocs=4
%mem=2GB
#p pbepbe aug-cc-pvtz output=wfx scf=(conver=6) int=(grid=ultrafine)
 
title
 
0 1
H	0.000000 0.000000 2.123888
N	0.000000 0.000000 1.119524
C	0.000000 1.122927 0.330902
C	0.000000 -1.122927 0.330902
C	0.000000 0.711642 -0.981492
C	0.000000 -0.711642 -0.981492
H	0.000000 2.108318 0.768276
H	0.000000 -2.108318 0.768276
H	0.000000 1.358830 -1.845013
H	0.000000 -1.358830 -1.845013

pyrrole.wfx

