%nprocs=4
%mem=2GB
#p pbepbe aug-cc-pvtz output=wfx scf=(conver=6) int=(grid=ultrafine)
 
title
 
0 1
S	0.000000 0.000000 0.000000
F	0.000000 0.000000 1.575382
F	0.000000 1.575382 0.000000
F	0.000000 0.000000 -1.575382
F	-1.575382 0.000000 0.000000
F	1.575382 0.000000 0.000000
F	0.000000 -1.575382 0.000000

sf6.wfx

