%nprocs=4
%mem=2GB
#p pbepbe aug-cc-pvtz output=wfx scf=(conver=6) int=(grid=ultrafine)
 
title
 
0 1
Si	0.000000 0.000000 1.177034
Si	0.000000 0.000000 -1.177034
H	0.000000 1.391414 1.697556
H	-1.204999 -0.695707 1.697556
H	1.204999 -0.695707 1.697556
H	0.000000 -1.391414 -1.697556
H	-1.204999 0.695707 -1.697556
H	1.204999 0.695707 -1.697556

si2h6.wfx

