%nprocs=4
%mem=2GB
#p pbepbe aug-cc-pvtz output=wfx scf=(conver=6) int=(grid=ultrafine)
 
title
 
0 1
    14      0.000000     0.000000     0.000000
     9      0.903448     0.903448     0.903448
     9     -0.903448    -0.903448     0.903448
     9     -0.903448     0.903448    -0.903448
     9      0.903448    -0.903448    -0.903448
 
sif4.wfx

