%nprocs=4
%mem=2GB
#p pbepbe aug-cc-pvtz output=wfx scf=(conver=6) int=(grid=ultrafine)
 
title
 
0 2
    14      0.000000     0.000000     0.080516
     1      0.000000     1.413080    -0.375744
     1      1.223764    -0.706540    -0.375744
     1     -1.223764    -0.706540    -0.375744
 
sih3.wfx

