%nprocs=4
%mem=2GB
#p pbepbe aug-cc-pvtz output=wfx scf=(conver=6) int=(grid=ultrafine)
 
title
 
0 1
    14      0.000000     0.000000     0.000000
     1      0.855859     0.855859     0.855859
     1     -0.855859    -0.855859     0.855859
     1     -0.855859     0.855859    -0.855859
     1      0.855859    -0.855859    -0.855859
 
sih4.wfx

