%nprocs=4
%mem=2GB
#p pbepbe aug-cc-pvtz output=wfx scf=(conver=6) int=(grid=ultrafine)
 
title
 
0 1
     6      0.000000     0.000000     0.000000
     6      0.000000     0.763949     1.269433
     6      0.000000    -0.763949     1.269433
     6      0.763949     0.000000    -1.269433
     6     -0.763949     0.000000    -1.269433
     1     -0.912080     1.268773     1.573558
     1      0.912080     1.268773     1.573558
     1     -0.912080    -1.268773     1.573558
     1      0.912080    -1.268773     1.573558
     1      1.268773    -0.912080    -1.573558
     1      1.268773     0.912080    -1.573558
     1     -1.268773    -0.912080    -1.573558
     1     -1.268773     0.912080    -1.573558
 
spiropentane.wfx

