%nprocs=4
%mem=2GB
#p pbepbe aug-cc-pvtz output=wfx scf=(conver=6) int=(grid=ultrafine)
 
title
 
0 1
C	-0.547954 -0.686332 1.258172
C	-0.011633 0.011871 0.000000
C	-0.547954 -0.686332 -1.258172
C	1.530038 -0.018529 0.000000
N	-0.547954 1.388635 0.000000
H	1.918201 -1.043588 0.000000
H	1.928123 0.489421 0.885927
H	1.928123 0.489421 -0.885927
H	-1.640846 -0.657699 -1.274196
H	-0.222990 -1.730709 -1.297765
H	-0.183651 -0.190405 -2.165616
H	-0.222990 -1.730709 1.297765
H	-1.640846 -0.657699 1.274196
H	-0.183651 -0.190405 2.165616
H	-0.189386 1.888928 0.810659
H	-0.189386 1.888928 -0.810659

t-butylamine.wfx

