%nprocs=4
%mem=2GB
#p pbepbe aug-cc-pvtz output=wfx scf=(conver=6) int=(grid=ultrafine)
 
title
 
0 1
     6     -0.547954    -0.686332     1.258172
     6     -0.011633     0.011871     0.000000
     6     -0.547954    -0.686332    -1.258172
     6      1.530038    -0.018529     0.000000
     7     -0.547954     1.388635     0.000000
     1      1.918201    -1.043588     0.000000
     1      1.928123     0.489421     0.885927
     1      1.928123     0.489421    -0.885927
     1     -1.640846    -0.657699    -1.274196
     1     -0.222990    -1.730709    -1.297765
     1     -0.183651    -0.190405    -2.165616
     1     -0.222990    -1.730709     1.297765
     1     -1.640846    -0.657699     1.274196
     1     -0.183651    -0.190405     2.165616
     1     -0.189386     1.888928     0.810659
     1     -0.189386     1.888928    -0.810659
 
t-butylamine.wfx

