%nprocs=4
%mem=2GB
#p pbepbe aug-cc-pvtz output=wfx scf=(conver=6) int=(grid=ultrafine)
 
title
 
0 2
     6      0.000000     0.000000     0.135611
     6      0.000000     1.487763    -0.013448
     6      1.288441    -0.743882    -0.013448
     6     -1.288441    -0.743882    -0.013448
     1      0.000000     1.802315    -1.073502
     1     -0.887922     1.942010     0.441486
     1      0.887922     1.942010     0.441486
     1      1.560851    -0.901158    -1.073502
     1      2.125791    -0.202042     0.441486
     1      1.237869    -1.739968     0.441486
     1     -1.560851    -0.901158    -1.073502
     1     -1.237869    -1.739968     0.441486
     1     -2.125791    -0.202042     0.441486
 
t-butyl-radical.wfx

