%nprocs=4
%mem=2GB
#p pbepbe aug-cc-pvtz output=wfx scf=(conver=6) int=(grid=ultrafine)
 
title
 
0 1
     6      0.000000     0.016261     0.000000
     8     -0.443839     1.380637     0.000000
     6      1.527748     0.101187     0.000000
     6     -0.507787    -0.691385     1.264503
     6     -0.507787    -0.691385    -1.264503
     1     -1.407097     1.373536     0.000000
     1      1.975103    -0.897143     0.000000
     1      1.876898     0.639712     0.885539
     1      1.876898     0.639712    -0.885539
     1     -0.144641    -1.722941     1.320577
     1     -1.603926    -0.725359     1.277233
     1     -0.173504    -0.156192     2.157825
     1     -0.144641    -1.722941    -1.320577
     1     -1.603926    -0.725359    -1.277233
     1     -0.173504    -0.156192    -2.157825
 
t-butanol.wfx

