%nprocs=4
%mem=2GB
#p pbepbe aug-cc-pvtz output=wfx scf=(conver=6) int=(grid=ultrafine)
 
title
 
0 1
S	0.000000 1.515458 0.000000
C	0.047786 -1.725484 0.000000
C	-0.374669 0.377949 1.383752
C	-0.374669 0.377949 -1.383752
C	0.381206 -0.949657 1.282719
C	0.381206 -0.949657 -1.282719
H	-1.456682 0.205118 1.418237
H	-0.099876 0.923456 2.290401
H	-1.456682 0.205118 -1.418237
H	-0.099876 0.923456 -2.290401
H	1.459119 -0.752643 1.325859
H	0.132408 -1.564894 2.157091
H	1.459119 -0.752643 -1.325859
H	0.132408 -1.564894 -2.157091
H	0.587379 -2.679077 0.000000
H	-1.022474 -1.976936 0.000000

tetrahydrothiopyran.wfx

