%nprocs=4
%mem=2GB
#p pbepbe aug-cc-pvtz output=wfx scf=(conver=6) int=(grid=ultrafine)
 
title
 
0 1
    14      0.000000     0.000000     0.000000
     6      1.089797     1.089797     1.089797
     1      1.736724     1.736724     0.486804
     1      1.736724     0.486804     1.736724
     1      0.486804     1.736724     1.736724
     6     -1.089797    -1.089797     1.089797
     1     -1.736724    -0.486804     1.736724
     1     -1.736724    -1.736724     0.486804
     1     -0.486804    -1.736724     1.736724
     6      1.089797    -1.089797    -1.089797
     1      0.486804    -1.736724    -1.736724
     1      1.736724    -0.486804    -1.736724
     1      1.736724    -1.736724    -0.486804
     6     -1.089797     1.089797    -1.089797
     1     -1.736724     0.486804    -1.736724
     1     -1.736724     1.736724    -0.486804
     1     -0.486804     1.736724    -1.736724
 
tetramethylsilane.wfx

