%nprocs=4
%mem=2GB
#p pbepbe aug-cc-pvtz output=wfx scf=(conver=6) int=(grid=ultrafine)
 
title
 
0 1
     1      0.990753     1.811236     0.026093
    16      0.000000     0.000000     1.313837
     6      0.000000    -1.349927     0.052680
     6      0.343410    -0.685388    -1.284713
     6     -0.343410     0.685388    -1.284713
     6      0.000000     1.349927     0.052680
     1     -0.727592     2.108725     0.346162
     1     -0.990753    -1.811236     0.026093
     1      0.727592    -2.108725     0.346162
     1      1.428737    -0.554195    -1.363187
     1      0.023498    -1.307163    -2.127566
     1     -1.428737     0.554195    -1.363187
     1     -0.023498     1.307163    -2.127566
 
tetrahydrothiophene.wfx

