%nprocs=4
%mem=2GB
#p pbepbe aug-cc-pvtz output=wfx scf=(conver=6) int=(grid=ultrafine)
 
title
 
0 1
     8      0.000000     0.000000     1.248672
     6      0.000000     1.170257     0.431767
     6      0.000000    -1.170257     0.431767
     6     -0.306356     0.704128    -0.996512
     6      0.306356    -0.704128    -0.996512
     1     -0.742516     1.874889     0.822973
     1      0.986281     1.656451     0.484498
     1      0.742516    -1.874889     0.822973
     1     -0.986281    -1.656451     0.484498
     1     -1.388709     0.647672    -1.155698
     1      0.113614     1.365592    -1.757988
     1      1.388709    -0.647672    -1.155698
     1     -0.113614    -1.365592    -1.757988
 
tetrahydrofuran.wfx

