%nprocs=4
%mem=2GB
#p pbepbe aug-cc-pvtz output=wfx scf=(conver=6) int=(grid=ultrafine)
 
title
 
0 1
N	0.000000 0.000000 0.367351
C	0.000000 1.388275 -0.059883
C	1.202281 -0.694137 -0.059883
C	-1.202281 -0.694137 -0.059883
H	0.000000 1.506466 -1.161828
H	0.886316 1.897588 0.331986
H	-0.886316 1.897588 0.331986
H	1.304638 -0.753233 -1.161828
H	1.200201 -1.716366 0.331986
H	2.086517 -0.181221 0.331986
H	-1.304638 -0.753233 -1.161828
H	-2.086517 -0.181221 0.331986
H	-1.200201 -1.716366 0.331986

trimethylamine.wfx

