%nprocs=4
%mem=2GB
#p pbepbe aug-cc-pvtz output=wfx scf=(conver=6) int=(grid=ultrafine)
 
title
 
0 1
C	0.000000 0.763812 0.000000
C	1.293475 1.044947 0.000000
Cl	-0.626058 -0.865477 0.000000
H	-0.789187 1.504509 0.000000
H	2.055799 0.275567 0.000000
H	1.615527 2.080480 0.000000

vinyl-chloride.wfx

