%nprocs=4
%mem=4GB
#p pbepbe aug-cc-pvtz output=wfx scf=(conver=6) int=(grid=ultrafine)

title

0 1
c 0.000000000000000 0.000000000000000 0.289053845839203
c 0.000000000000000 1.275957358232667 -0.549419389528752
c 0.000000000000000 -1.275957358232667 -0.549419389528752
c 0.000000000000000 2.543413714166409 0.301165849267472
c 0.000000000000000 -2.543413714166409 0.301165849267472
h 0.878729246759360 0.000000000000000 0.948514030992182
h -0.878729246759360 0.000000000000000 0.948514030992182
h 0.878010246517725 1.273933357699765 -1.207517574327501
h -0.878010246517725 1.273933357699765 -1.207517574327501
h 0.878010246517725 -1.273933357699765 -1.207517574327501
h -0.878010246517725 -1.273933357699765 -1.207517574327501
h 0.884025248241145 2.579898724401579 0.945381030131852
h -0.884025248241145 2.579898724401579 0.945381030131852
h 0.000000000000000 3.443616966900357 -0.320514325259222
h 0.884025248241145 -2.579898724401579 0.945381030131852
h -0.884025248241145 -2.579898724401579 0.945381030131852
h 0.000000000000000 -3.443616966900357 -0.320514325259222

AM5.wfx

