%nprocs=4
%mem=4GB
#p pbepbe aug-cc-pvtz output=wfx scf=(conver=6) int=(grid=ultrafine)

title

0 1
c 0.000000000000000 0.000000000000000 -0.603249954668953
h 0.000000000000000 0.000000000000000 -1.666649874387165
c 0.000000000000000 0.000000000000000 0.603249954668953
h 0.000000000000000 0.000000000000000 1.666649874387165

c2h2.wfx

