%nprocs=4
%mem=4GB
#p pbepbe aug-cc-pvtz output=wfx scf=(conver=6) int=(grid=ultrafine)

title

0 2
c -0.843376064110580 0.219328217029574 0.000000000000000
h -1.690096324869564 -0.448819231443272 0.000000000000000
c 0.465873320202042 0.111758055161944 0.000000000000000
h 1.114347030055827 0.980784928644557 0.000000000000000
h 0.953252038722275 -0.863051969392803 0.000000000000000

ch2ch.wfx

