%nprocs=4
%mem=4GB
#p pbepbe aug-cc-pvtz output=wfx scf=(conver=6) int=(grid=ultrafine)

title

0 1
o 0.000000000000000 0.000000000000000 -1.195191909925648
c 0.000000000000000 0.000000000000000 0.011407999087720
h -0.936953929560304 0.000000000000000 0.591891955418964
h 0.936953929560304 0.000000000000000 0.591891955418964

ch2o.wfx

