%nprocs=4
%mem=4GB
#p pbepbe aug-cc-pvtz output=wfx scf=(conver=6) int=(grid=ultrafine)

title

0 2
c 0.000000000000000 0.000000000000000 0.000000000000000
h -0.538849959269660 -0.933315507111469 0.000000000000000
h -0.538849959269660 0.933315507111469 0.000000000000000
h 1.077699918539319 0.000000000000000 0.000000000000000

ch3.wfx

