%nprocs=4
%mem=4GB
#p pbepbe aug-cc-pvtz output=wfx scf=(conver=6) int=(grid=ultrafine)

title

0 2
c 0.000000000000000 0.000000000000000 0.029134107869869
h -0.936731069224792 0.000000000000000 0.595545525044662
h 0.936731069224792 0.000000000000000 0.595545525044662
n 0.000000000000000 0.000000000000000 -1.220225157959193

h2cn.wfx

