%nprocs=4
%mem=4GB
#p pbepbe aug-cc-pvtz output=wfx scf=(conver=6) int=(grid=ultrafine)

title

0 1
h -0.953175110749755 -0.713014735073010 -0.263594694457604
o -0.723827857484974 0.059149306110995 0.263594694457604
o 0.723827857484974 -0.059149306110995 0.263594694457604
h 0.953175110749755 0.713014735073010 -0.263594694457604

h2o2.wfx

