%nprocs=4
%mem=2GB
#p hf aug-cc-pvdz output=wfx scf=(conver=6) int=(grid=ultrafine)

title

0 1
  P    1.201269535  -0.204173999  -0.693599141
  H    0.007111355  -0.041005705   0.052498122
  H    1.148472001  -1.620791091  -0.659628284
  H    2.042957921  -0.122447272   0.444639236
  N   -2.084933724   0.416333433   1.120996257
  H   -2.837361575   0.619857028   0.475290926
  H   -2.359740013  -0.397606575   1.656196950
  H   -2.024502510   1.193752165   1.766328963

1.01_0.90_phosphine--ammonia.wfx


