%nprocs=4
%mem=2GB
#p hf aug-cc-pvdz output=wfx scf=(conver=6) int=(grid=ultrafine)

title

0 1
  P    1.201269535  -0.204173999  -0.693599141
  H    0.007111355  -0.041005705   0.052498122
  H    1.148472001  -1.620791091  -0.659628284
  H    2.042957921  -0.122447272   0.444639236

1.01_mon1_phosphine--ammonia.wfx


