%nprocs=4
%mem=2GB
#p hf aug-cc-pvdz output=wfx scf=(conver=6) int=(grid=ultrafine)

title

0 1
  P   -0.073492991  -3.483349359   0.000000000
  H    0.782083498  -2.355114525   0.000000000
  H    0.628233930  -4.150964849   1.034438818
  H    0.628233930  -4.150964849  -1.034438818

1.03_mon1_phosphine--pyridine.wfx


