%nprocs=4
%mem=2GB
#p hf aug-cc-pvdz output=wfx scf=(conver=6) int=(grid=ultrafine)

title

0 1
  P    0.084011746  -2.570366557   0.000000000
  H    0.634622704  -1.263582160   0.000000000
  H    0.930911127  -3.042279034   1.033886520
  H    0.930911127  -3.042279034  -1.033886520
  H    0.554246034   2.926920870   0.000000000
  H    1.725139228   1.927903875   0.882652225
  H    1.725139228   1.927903875  -0.882652225
  H    0.012879343   0.755430484  -2.080724731
  H   -1.299478126   1.650207607  -1.289433942
  H   -1.240457632  -0.120223317  -1.196974911
  H   -1.299478126   1.650207607   1.289433942
  H   -1.240457632  -0.120223317   1.196974911
  C    1.087713302   1.961450106   0.000000000
  N    0.186798575   0.824364268   0.000000000
  C   -0.627508502   0.780409911  -1.199849959
  C   -0.627508502   0.780409911   1.199849959
  H    0.012879343   0.755430484   2.080724731

1.04_0.85_phosphine--trimethylamine.wfx


