%nprocs=4
%mem=2GB
#p hf aug-cc-pvdz output=wfx scf=(conver=6) int=(grid=ultrafine)

title

0 1
  P    0.084011746  -2.570366557   0.000000000
  H    0.634622704  -1.263582160   0.000000000
  H    0.930911127  -3.042279034   1.033886520
  H    0.930911127  -3.042279034  -1.033886520
  H    0.475218246   3.295382004   0.000000000
  H    1.646111440   2.296365009   0.882652225
  H    1.646111440   2.296365009  -0.882652225
  H   -0.066148445   1.123891618  -2.080724731
  H   -1.378505914   2.018668741  -1.289433942
  H   -1.319485420   0.248237817  -1.196974911
  H   -1.378505914   2.018668741   1.289433942
  H   -1.319485420   0.248237817   1.196974911
  C    1.008685514   2.329911240   0.000000000
  N    0.107770787   1.192825402   0.000000000
  C   -0.706536290   1.148871045  -1.199849959
  C   -0.706536290   1.148871045   1.199849959
  H   -0.066148445   1.123891618   2.080724731

1.04_1.00_phosphine--trimethylamine.wfx


