%nprocs=4
%mem=2GB
#p hf aug-cc-pvdz output=wfx scf=(conver=6) int=(grid=ultrafine)

title

0 1
  H    2.067582121   0.733583295   0.706900504
  H    2.074130579  -0.428106235   2.037638887
  H    0.654236511   0.591066779   1.779121329
  H    0.115869336  -0.479113373  -0.625228621
  C    1.453161194   0.046813200   1.282645428
  S    0.790670410  -1.283367978   0.227058564
  N   -1.045231128   0.782294404  -1.332133714
  H   -1.741903436   0.230966710  -1.815308792
  H   -0.757877787   1.517945258  -1.963323232
  C   -1.582888677   1.332188672  -0.085849825
  H   -0.820020170   1.945559434   0.391091431
  H   -2.483272630   1.943020154  -0.206431714
  H   -1.813224721   0.513030818   0.593849048

1.06_0.85_methanethiol--methylamine.wfx


