%nprocs=4
%mem=2GB
#p hf aug-cc-pvdz output=wfx scf=(conver=6) int=(grid=ultrafine)

title

0 1
  N   -1.250131210   1.004895777  -1.456881672
  H   -1.946803518   0.453568083  -1.940056750
  H   -0.962777869   1.740546630  -2.088071190
  C   -1.787788759   1.554790044  -0.210597783
  H   -1.024920252   2.168160807   0.266343473
  H   -2.688172712   2.165621527  -0.331179672
  H   -2.018124803   0.735632191   0.469101090

1.06_mon2_methanethiol--methylamine.wfx


