%nprocs=4
%mem=2GB
#p hf aug-cc-pvdz output=wfx scf=(conver=6) int=(grid=ultrafine)

title

0 1
  H    2.067582121   0.733583295   0.706900504
  H    2.074130579  -0.428106235   2.037638887
  H    0.654236511   0.591066779   1.779121329
  H    0.115869336  -0.479113373  -0.625228621
  C    1.453161194   0.046813200   1.282645428
  S    0.790670410  -1.283367978   0.227058564
  N   -1.591631346   1.375898064  -1.664794935
  H   -2.288303654   0.824570370  -2.147970013
  H   -1.304278006   2.111548918  -2.295984453
  C   -2.129288896   1.925792332  -0.418511046
  H   -1.366420388   2.539163094   0.058430210
  H   -3.029672848   2.536623814  -0.539092935
  H   -2.359624940   1.106634478   0.261187827

1.06_1.25_methanethiol--methylamine.wfx


