%nprocs=4
%mem=2GB
#p hf aug-cc-pvdz output=wfx scf=(conver=6) int=(grid=ultrafine)

title

0 1
  H    2.386664889  -0.876414385   0.322225349
  H    3.247985213  -2.071033336   1.302201259
  H    2.489335005  -0.678380478   2.085478291
  H    0.023567545  -1.407023704   1.348266114
  C    2.395979833  -1.396794244   1.276056264
  S    0.902061296  -2.420884955   1.477340864

1.07_mon1_methanethiol--pyridine.wfx


