%nprocs=4
%mem=2GB
#p hf aug-cc-pvdz output=wfx scf=(conver=6) int=(grid=ultrafine)

title

0 1
  H   -1.587915175  -1.939285078   0.889921579
  H   -1.218712774  -3.419324543   0.000000000
  H   -1.587915175  -1.939285078  -0.889921579
  H    0.551358815  -0.628721581   0.000000000
  C   -1.108038693  -2.338224205   0.000000000
  S    0.680082860  -1.981329585   0.000000000
  H   -1.025690592   2.323752138   1.304969702
  H   -1.568232683   0.638271990   1.194122284
  H   -0.092676282   1.027183060   2.080108439
  H    1.910235555   1.590124433   0.882692364
  H    1.135533054   2.920638200   0.000000000
  H    1.910235555   1.590124433  -0.882692364
  H   -1.025690592   2.323752138  -1.304969702
  H   -0.092676282   1.027183060  -2.080108439
  C   -0.688505121   1.280142374   1.204540608
  N    0.092621064   1.060526347   0.000000000
  C    1.321323872   1.835088558   0.000000000
  C   -0.688505121   1.280142374  -1.204540608
  H   -1.568232683   0.638271990  -1.194122284

1.08_0.85_methanethiol--trimethylamine.wfx


