%nprocs=4
%mem=2GB
#p hf aug-cc-pvdz output=wfx scf=(conver=6) int=(grid=ultrafine)

title

0 1
  H    1.700202605   0.232163252   0.141981808
  H    1.830711941   2.076036912   0.741863884
  S    1.652224685   0.878921467   1.319452482
  H   -2.163232282   1.162593703  -0.495685711
  H   -2.843469701   0.194198415   0.843445728
  H   -1.172451794   0.831957044   0.961198107
  C   -1.944542967   0.452572924   0.297592722
  O   -1.491497511  -0.804158999  -0.298055999
  C   -0.386444833  -0.745323136  -0.942388185
  N    0.611843120  -0.727019563  -1.523743810

1.12_0.90_sulfane--methylcyanate.wfx


