%nprocs=4
%mem=2GB
#p hf aug-cc-pvdz output=wfx scf=(conver=6) int=(grid=ultrafine)

title

0 1
  N    0.000000325   1.367284318   0.000000000
  H   -0.472230286   1.731840662  -0.817926701
  H   -0.472230286   1.731840662   0.817926701
  H    0.944460649   1.731841152   0.000000000

1.15_mon2_hydrogenfluoride--ammonia.wfx


