%nprocs=4
%mem=2GB
#p hf aug-cc-pvdz output=wfx scf=(conver=6) int=(grid=ultrafine)

title

0 1
  H    0.328016831   1.546292083   0.000000000
  F    0.577717104   2.456537939   0.000000000
  H   -2.412277491  -1.650732376   0.891263521
  H   -2.412277491  -1.650732376  -0.891263521
  H   -2.553157617  -0.125252424   0.000000000
  C   -2.096805374  -1.108397895   0.000000000
  N   -0.638734528  -0.890374163   0.000000000
  N    0.062189280  -1.901406782   0.000000000
  N    0.784500260  -2.763970591   0.000000000

1.17_1.50_hydrogenfluoride--methylazide.wfx


