%nprocs=4
%mem=2GB
#p hf aug-cc-pvdz output=wfx scf=(conver=6) int=(grid=ultrafine)

title

0 1
  H    0.328016831   1.546292083   0.000000000
  F    0.577717104   2.456537939   0.000000000
  H   -1.961126857  -0.513621461   0.891263521
  H   -1.961126857  -0.513621461  -0.891263521
  H   -2.102006983   1.011858491   0.000000000
  C   -1.645654740   0.028713020   0.000000000
  N   -0.187583894   0.246736752   0.000000000
  N    0.513339914  -0.764295867   0.000000000
  N    1.235650894  -1.626859676   0.000000000

1.17_0.80_hydrogenfluoride--methylazide.wfx


