%nprocs=4
%mem=2GB
#p hf aug-cc-pvdz output=wfx scf=(conver=6) int=(grid=ultrafine)

title

0 1
  H    1.537496885   0.303101283  -0.387122015
  F    2.479783008   0.237657304  -0.327727349
  C   -1.330461985   0.358370034   1.935099031
  H   -1.669534989   1.382539134   2.093033305
  H   -0.258219093   0.329566162   2.130794239
  H   -1.839599618  -0.303088972   2.627265687
  C   -1.603412465  -0.102045534   0.522951877
  O   -2.155998667  -1.139932792   0.246414559
  N   -1.097753443   0.739919716  -0.470871677
  H   -1.028188243   1.709809146  -0.199766635
  C   -1.507763917   0.510158316  -1.857735266
  H   -2.573241411   0.690417224  -2.001079019
  H   -0.933890015   1.167760684  -2.504612029
  H   -1.297823227  -0.521336804  -2.120284391

1.19_1.50_hydrogenfluoride--Nmethylacetamide.wfx


