%nprocs=4
%mem=2GB
#p hf aug-cc-pvdz output=wfx scf=(conver=6) int=(grid=ultrafine)

title

0 1
  H   -0.000001751  -1.212907688   0.000000000
  F   -0.000003522  -2.192357204   0.000000000
  H   -0.738363226   3.494955542  -1.278886190
  H   -0.184943644   2.011939069  -2.085097026
  H   -1.713271714   2.011939673  -1.202713111
  H   -1.713271714   2.011939673   1.202713111
  H   -0.738363226   3.494955542   1.278886190
  H   -0.184943644   2.011939069   2.085097026
  H    1.476740569   3.494953229   0.000000000
  H    1.898223971   2.011937055   0.882381628
  C   -0.697354612   2.400814431  -1.207858275
  N    0.000004183   1.961111220   0.000000000
  C   -0.697354612   2.400814431   1.207858275
  C    1.394722042   2.400812794   0.000000000
  H    1.898223971   2.011937055  -0.882381628

1.21_2.00_hydrogenfluoride--trimethylamine.wfx


