%nprocs=4
%mem=2GB
#p hf aug-cc-pvdz output=wfx scf=(conver=6) int=(grid=ultrafine)

title

0 1
  H   -0.000001751  -1.212907688   0.000000000
  F   -0.000003522  -2.192357204   0.000000000
  H   -0.738365896   2.066647033  -1.278886190
  H   -0.184946314   0.583630560  -2.085097026
  H   -1.713274384   0.583631164  -1.202713111
  H   -1.713274384   0.583631164   1.202713111
  H   -0.738365896   2.066647033   1.278886190
  H   -0.184946314   0.583630560   2.085097026
  H    1.476737899   2.066644720   0.000000000
  H    1.898221301   0.583628546   0.882381628
  C   -0.697357282   0.972505922  -1.207858275
  N    0.000001513   0.532802711   0.000000000
  C   -0.697357282   0.972505922   1.207858275
  C    1.394719372   0.972504285   0.000000000
  H    1.898221301   0.583628546  -0.882381628

1.21_1.10_hydrogenfluoride--trimethylamine.wfx


