%nprocs=4
%mem=2GB
#p hf aug-cc-pvdz output=wfx scf=(conver=6) int=(grid=ultrafine)

title

0 1
  H    0.000000216  -0.312689967   0.000000000
 Cl   -0.000001282   1.030655196   0.000000000
  N    0.000005272  -3.756277741   0.000000000
  H   -0.473178859  -4.115285793   0.819577485
  H   -0.473178859  -4.115285793  -0.819577485
  H    0.946371448  -4.115287573   0.000000000

1.22_2.00_hydrogenchloride--ammonia.wfx


