%nprocs=4
%mem=2GB
#p hf aug-cc-pvdz output=wfx scf=(conver=6) int=(grid=ultrafine)

title

0 1
  H    0.126682222   1.083119430   0.000000000
 Cl    0.244070020   2.384096055   0.000000000
  H   -1.953041963  -1.260217296   0.891135748
  H   -1.953041963  -1.260217296  -0.891135748
  H   -2.207510527   0.250269579   0.000000000
  C   -1.677789562  -0.695809382   0.000000000
  N   -0.242326586  -0.368433024   0.000000000
  N    0.538542172  -1.316377623   0.000000000
  N    1.338695296  -2.109111244   0.000000000

1.24_0.80_hydrogenchloride--methylazide.wfx


