%nprocs=4
%mem=2GB
#p hf aug-cc-pvdz output=wfx scf=(conver=6) int=(grid=ultrafine)

title

0 1
  H    0.126682222   1.083119430   0.000000000
 Cl    0.244070020   2.384096055   0.000000000
  H   -2.091420266  -1.804549467   0.891135748
  H   -2.091420266  -1.804549467  -0.891135748
  H   -2.345888830  -0.294062592   0.000000000
  C   -1.816167865  -1.240141553   0.000000000
  N   -0.380704889  -0.912765195   0.000000000
  N    0.400163869  -1.860709794   0.000000000
  N    1.200316993  -2.653443415   0.000000000

1.24_1.10_hydrogenchloride--methylazide.wfx


