%nprocs=4
%mem=2GB
#p hf aug-cc-pvdz output=wfx scf=(conver=6) int=(grid=ultrafine)

title

0 1
  H    0.108442249  -1.774679671   0.000000000
 Cl   -0.147300079  -3.049197596   0.000000000
  H   -1.348543979   3.101809659  -0.895624011
  H   -1.348543979   3.101809659   0.895624011
  H   -0.539719250   4.420845234   0.000000000
  C   -0.794572230   3.368577697   0.000000000
  O    0.488801841   2.668858876   0.000000000
  C    0.426054618   1.392328520   0.000000000
  N    0.408687842   0.239875973   0.000000000

1.25_1.05_hydrogenchloride--methylcyanate.wfx


