%nprocs=4
%mem=2GB
#p hf aug-cc-pvdz output=wfx scf=(conver=6) int=(grid=ultrafine)

title

0 1
  H    0.000000000   0.000000000   1.625883667
 Cl    0.000000000   0.000000000   2.993344991
  H    0.000000000  -2.147713952  -2.388263697
  H    0.000000000  -2.051415327   0.105266456
  C    0.000000000   0.000000000  -2.582064500
  C    0.000000000  -1.196403290  -1.877948269
  C    0.000000000  -1.149313355  -0.492015542
  N    0.000000000   0.000000000   0.180981179
  C   -0.000000000   1.149313355  -0.492015542
  C   -0.000000000   1.196403290  -1.877948269
  H   -0.000000000   2.051415327   0.105266456
  H   -0.000000000   2.147713952  -2.388263697
  H    0.000000000   0.000000000  -3.662642018

1.27_0.90_hydrogenchloride--pyridine.wfx


