%nprocs=4
%mem=2GB
#p hf aug-cc-pvdz output=wfx scf=(conver=6) int=(grid=ultrafine)

title

0 1
  H    0.000000000   0.000000000   1.625883667
 Cl    0.000000000   0.000000000   2.993344991
  H    0.000000000  -2.147713952  -2.227718976
  H    0.000000000  -2.051415327   0.265811177
  C    0.000000000   0.000000000  -2.421519779
  C    0.000000000  -1.196403290  -1.717403548
  C    0.000000000  -1.149313355  -0.331470821
  N    0.000000000   0.000000000   0.341525900
  C   -0.000000000   1.149313355  -0.331470821
  C   -0.000000000   1.196403290  -1.717403548
  H   -0.000000000   2.051415327   0.265811177
  H   -0.000000000   2.147713952  -2.227718976
  H    0.000000000   0.000000000  -3.502097297

1.27_0.80_hydrogenchloride--pyridine.wfx


