%nprocs=4
%mem=2GB
#p hf aug-cc-pvdz output=wfx scf=(conver=6) int=(grid=ultrafine)

title

0 1
  H    0.000000000   0.000000000   1.625883667
 Cl    0.000000000   0.000000000   2.993344991
  H    0.000000000  -2.147713952  -4.154255627
  H    0.000000000  -2.051415327  -1.660725474
  C    0.000000000   0.000000000  -4.348056430
  C    0.000000000  -1.196403290  -3.643940199
  C    0.000000000  -1.149313355  -2.258007472
  N    0.000000000   0.000000000  -1.585010751
  C    0.000000000   1.149313355  -2.258007472
  C    0.000000000   1.196403290  -3.643940199
  H    0.000000000   2.051415327  -1.660725474
  H    0.000000000   2.147713952  -4.154255627
  H    0.000000000   0.000000000  -5.428633948

1.27_2.00_hydrogenchloride--pyridine.wfx


