%nprocs=4
%mem=2GB
#p hf aug-cc-pvdz output=wfx scf=(conver=6) int=(grid=ultrafine)

title

0 1
  H    0.000000000   0.000000000   1.625883667
 Cl    0.000000000   0.000000000   2.993344991
  H    0.000000000  -2.147713952  -2.548808418
  H    0.000000000  -2.051415327  -0.055278265
  C    0.000000000   0.000000000  -2.742609221
  C    0.000000000  -1.196403290  -2.038492990
  C    0.000000000  -1.149313355  -0.652560263
  N    0.000000000   0.000000000   0.020436458
  C    0.000000000   1.149313355  -0.652560263
  C    0.000000000   1.196403290  -2.038492990
  H    0.000000000   2.051415327  -0.055278265
  H    0.000000000   2.147713952  -2.548808418
  H    0.000000000   0.000000000  -3.823186739

1.27_1.00_hydrogenchloride--pyridine.wfx


