%nprocs=4
%mem=2GB
#p hf aug-cc-pvdz output=wfx scf=(conver=6) int=(grid=ultrafine)

title

0 1
  H    0.000015148  -0.932477668   0.000000000
 Br   -0.000005844   0.581740630   0.000000000
  N    0.000025267  -2.413982172   0.000000000
  H   -0.474354368  -2.766447976   0.821647420
  H   -0.474354368  -2.766447976  -0.821647420
  H    0.948781144  -2.766451802   0.000000000

1.28_0.90_hydrogenbromide--ammonia.wfx


