%nprocs=4
%mem=2GB
#p hf aug-cc-pvdz output=wfx scf=(conver=6) int=(grid=ultrafine)

title

0 1
  H    0.000015148  -0.932477668   0.000000000
 Br   -0.000005844   0.581740630   0.000000000
  N    0.000032012  -3.401651840   0.000000000
  H   -0.474347622  -3.754117644   0.821647420
  H   -0.474347622  -3.754117644  -0.821647420
  H    0.948787890  -3.754121470   0.000000000

1.28_1.50_hydrogenbromide--ammonia.wfx


