%nprocs=4
%mem=2GB
#p hf aug-cc-pvdz output=wfx scf=(conver=6) int=(grid=ultrafine)

title

0 1
  H    0.036809127   0.227480533  -0.084366851
 Br    0.024581402   1.675889392  -0.191628359
  H   -1.930100090  -2.820779281   1.348344546
  H   -2.050254176  -3.244650890  -0.378732580
  H   -2.353067918  -1.581655166   0.154319192
  C   -1.757274470  -2.470439363   0.330559716
  N   -0.353680546  -2.074339748   0.133827472
  N    0.497477186  -2.940688502   0.314170830
  N    1.358667650  -3.653873499   0.451619752

1.29_1.25_hydrogenbromide--methylazide.wfx


