%nprocs=4
%mem=2GB
#p hf aug-cc-pvdz output=wfx scf=(conver=6) int=(grid=ultrafine)

title

0 1
  H    0.036809127   0.227480533  -0.084366851
 Br    0.024581402   1.675889392  -0.191628359
  H   -1.836382569  -2.268342414   1.295977908
  H   -1.956536654  -2.692214023  -0.431099217
  H   -2.259350397  -1.029218299   0.101952555
  C   -1.663556948  -1.918002496   0.278193078
  N   -0.259963024  -1.521902881   0.081460834
  N    0.591194708  -2.388251635   0.261804193
  N    1.452385171  -3.101436632   0.399253114

1.29_0.95_hydrogenbromide--methylazide.wfx


