%nprocs=4
%mem=2GB
#p hf aug-cc-pvdz output=wfx scf=(conver=6) int=(grid=ultrafine)

title

0 1
  H    0.036809127   0.227480533  -0.084366851
 Br    0.024581402   1.675889392  -0.191628359
  H   -1.852002156  -2.360415225   1.304705681
  H   -1.972156241  -2.784286834  -0.422371444
  H   -2.274969984  -1.121291110   0.110680328
  C   -1.679176535  -2.010075307   0.286920851
  N   -0.275582611  -1.613975692   0.090188607
  N    0.575575121  -2.480324446   0.270531966
  N    1.436765584  -3.193509443   0.407980887

1.29_1.00_hydrogenbromide--methylazide.wfx


