%nprocs=4
%mem=2GB
#p hf aug-cc-pvdz output=wfx scf=(conver=6) int=(grid=ultrafine)

title

0 1
  H    0.297566448  -0.717849564   0.000000000
 Br   -0.085272120  -2.108519111   0.000000000
  H   -1.121280302   5.781482308   0.895536333
  H   -0.493214943   7.195584916   0.000000000
  H   -1.121280302   5.781482308  -0.895536333
  C   -0.607058934   6.118878408   0.000000000
  O    0.757095150   5.594328027   0.000000000
  C    0.862053311   4.320195942   0.000000000
  N    0.997171290   3.175172820   0.000000000

1.30_2.00_hydrogenbromide--methylcyanate.wfx


