%nprocs=4
%mem=2GB
#p hf aug-cc-pvdz output=wfx scf=(conver=6) int=(grid=ultrafine)

title

0 1
  H    0.297566448  -0.717849564   0.000000000
 Br   -0.085272120  -2.108519111   0.000000000
  H   -1.296181512   4.808226712   0.895536333
  H   -0.668116154   6.222329320   0.000000000
  H   -1.296181512   4.808226712  -0.895536333
  C   -0.781960144   5.145622812   0.000000000
  O    0.582193940   4.621072431   0.000000000
  C    0.687152100   3.346940346   0.000000000
  N    0.822270080   2.201917224   0.000000000

1.30_1.50_hydrogenbromide--methylcyanate.wfx


