%nprocs=4
%mem=2GB
#p hf aug-cc-pvdz output=wfx scf=(conver=6) int=(grid=ultrafine)

title

0 1
  H   -1.471082723   3.834971116   0.895536333
  H   -0.843017364   5.249073724   0.000000000
  H   -1.471082723   3.834971116  -0.895536333
  C   -0.956861355   4.172367216   0.000000000
  O    0.407292729   3.647816835   0.000000000
  C    0.512250890   2.373684750   0.000000000
  N    0.647368869   1.228661628   0.000000000

1.30_mon2_hydrogenbromide--methylcyanate.wfx


