%nprocs=4
%mem=2GB
#p hf aug-cc-pvdz output=wfx scf=(conver=6) int=(grid=ultrafine)

title

0 1
  H   -0.130828491   0.131510701  -0.431202063
  I    0.015068266  -0.015261633  -2.148009928
  N   -0.334462192   0.336462145   1.967762757
  H   -0.044409030  -0.524126040   2.414444567
  H    0.249534488   1.092721207   2.301360253
  H   -1.295943002   0.528789664   2.218426602

1.32_1.50_hydrogeniodide--ammonia.wfx


