%nprocs=4
%mem=2GB
#p hf aug-cc-pvdz output=wfx scf=(conver=6) int=(grid=ultrafine)

title

0 1
  H    1.372511541  -0.064978654  -1.043237779
  H    2.272747724  -1.519531556  -0.584395577
  H    2.376209150  -0.068536694   0.423254912
  H   -0.247481371  -0.137544417   1.018760109
  C    1.720794748  -0.662912680  -0.206478858
  S    0.317023197  -1.324872175   0.748579721
  O   -0.802700654   1.923943830  -0.165342952
  H   -0.967174218   2.860455618  -0.039440835
  C   -1.536000940   1.466640284  -1.298288598
  H   -1.356913190   0.396944563  -1.372605578
  H   -2.609632388   1.631075668  -1.181065604
  H   -1.198491138   1.947383861  -2.219770126

2.03_1.05_methanethiol--methanol.wfx


