%nprocs=4
%mem=2GB
#p hf aug-cc-pvdz output=wfx scf=(conver=6) int=(grid=ultrafine)

title

0 1
  H    1.332777940   0.616259671  -0.147552513
  H    1.898124798   1.946242462  -1.461539550
  S    1.781280814   1.891357336  -0.127119785
  H   -2.658111032  -1.871816840  -0.092161305
  H   -1.296261038  -2.714175318  -0.748425788
  H   -1.142083332   0.235162226   1.836686407
  H   -1.072258707   1.189259550   0.365765982
  H   -2.542817757   0.265916696   0.754087538
  O    0.364622403  -0.963833069  -0.166664865
  C   -0.830867909  -0.905395108   0.071129167
  N   -1.676083190  -1.905503020  -0.288032796
  C   -1.455692023   0.266176461   0.793700967

2.04_0.90_sulfane--acetamide.wfx


