%nprocs=4
%mem=2GB
#p hf aug-cc-pvdz output=wfx scf=(conver=6) int=(grid=ultrafine)

title

0 1
  H    1.332777940   0.616259671  -0.147552513
  H    1.898124798   1.946242462  -1.461539550
  S    1.781280814   1.891357336  -0.127119785
  H   -3.303548056  -2.925212000  -0.104902874
  H   -1.941698062  -3.767570478  -0.761167356
  H   -1.787520356  -0.818232934   1.823944838
  H   -1.717695731   0.135864390   0.353024414
  H   -3.188254781  -0.787478464   0.741345970
  O   -0.280814621  -2.017228229  -0.179406434
  C   -1.476304933  -1.958790268   0.058387598
  N   -2.321520214  -2.958898180  -0.300774364
  C   -2.101129047  -0.787218699   0.780959398

2.04_1.50_sulfane--acetamide.wfx


