%nprocs=4
%mem=2GB
#p hf aug-cc-pvdz output=wfx scf=(conver=6) int=(grid=ultrafine)

title

0 1
  H    1.425969998   0.667220724  -0.246014418
  H    2.431068551   1.692112706   1.070775682
  S    1.867313537   1.933810349  -0.121553023
  H   -1.063045870  -2.611077487  -0.323145978
  H   -0.800711313   1.274516880   0.566286570
  H   -2.314493753   0.666102870  -0.148795808
  H   -1.914544643   0.246584056   1.506539353
  O    0.383121411  -0.852094737  -0.297344091
  C   -0.774003040  -0.788051128   0.036208149
  O   -1.587187709  -1.865867315   0.002049333
  C   -1.487986714   0.437016020   0.522839539

2.05_0.85_sulfane--aceticacid.wfx


