%nprocs=4
%mem=2GB
#p hf aug-cc-pvdz output=wfx scf=(conver=6) int=(grid=ultrafine)

title

0 1
  H   -0.335936753  -1.270897277   2.021782129
  H    0.034672352  -2.823201265   1.235550651
  H    1.234613346  -1.508835488   1.223927594
  H   -0.335936753  -1.270897277  -2.021782129
  H    0.034672352  -2.823201265  -1.235550651
  H    1.234613346  -1.508835488  -1.223927594
  C    0.164635953  -1.737752802   1.177779600
  O   -0.419910704  -1.218140859   0.000000000
  C    0.164635953  -1.737752802  -1.177779600

2.06_mon2_sulfane--dimethylether.wfx


