%nprocs=4
%mem=2GB
#p hf aug-cc-pvdz output=wfx scf=(conver=6) int=(grid=ultrafine)

title

0 1
  H    0.605915701   0.162904659  -0.307556747
  H    2.150876743   0.627823125   0.784025773
  S    1.243552707   1.292942979   0.054646191
  O   -0.492395830  -1.121907203  -0.427977469
  H   -0.779063093  -1.643866026  -1.180103675
  C   -1.613228585  -0.833027930   0.404170104
  H   -1.251617792  -0.186639373   1.199500938
  H   -2.399035865  -0.305996664  -0.141333196
  H   -2.028802684  -1.740083481   0.848478236

2.08_0.80_sulfane--methanol.wfx


