%nprocs=4
%mem=2GB
#p hf aug-cc-pvdz output=wfx scf=(conver=6) int=(grid=ultrafine)

title

0 1
  H    0.605915701   0.162904659  -0.307556747
  H    2.150876743   0.627823125   0.784025773
  S    1.243552707   1.292942979   0.054646191
  O   -0.835618184  -1.523410910  -0.465608945
  H   -1.122285447  -2.045369733  -1.217735151
  C   -1.956450939  -1.234531637   0.366538628
  H   -1.594840146  -0.588143080   1.161869462
  H   -2.742258219  -0.707500371  -0.178964672
  H   -2.372025038  -2.141587188   0.810846760

2.08_1.05_sulfane--methanol.wfx


