%nprocs=4
%mem=2GB
#p hf aug-cc-pvdz output=wfx scf=(conver=6) int=(grid=ultrafine)

title

0 1
  H    0.428400717   1.519396538   1.534787360
  H    0.346111451   1.519392846  -0.204202210
  H   -1.134563195  -1.411793069   2.077542594
  H    0.572621355  -1.811510772   1.996771550
  H    0.055778688  -0.334669534   2.835221904
  O   -0.228218943  -0.895382493  -0.392127572
  C   -0.034725298  -0.281621540   0.659802923
  N    0.272647279   1.027804701   0.675919687
  C   -0.136987603  -0.986475509   1.986547558

2.12_mon2_hydrogenfluoride--acetamide.wfx


