%nprocs=4
%mem=2GB
#p hf aug-cc-pvdz output=wfx scf=(conver=6) int=(grid=ultrafine)

title

0 1
  H   -0.064731809   0.051850180  -1.624618161
  F    0.088838349   0.822032063  -2.190519980
  H    0.461098144   1.708843073   1.288289242
  H    0.378808878   1.708839381  -0.450700328
  H   -1.101865768  -1.222346534   1.831044476
  H    0.605318782  -1.622064237   1.750273432
  H    0.088476115  -0.145222999   2.588723786
  O   -0.195521516  -0.705935958  -0.638625690
  C   -0.002027871  -0.092175005   0.413304805
  N    0.305344706   1.217251236   0.429421569
  C   -0.104290176  -0.797028974   1.740049440

2.12_0.80_hydrogenfluoride--acetamide.wfx


