%nprocs=4
%mem=2GB
#p hf aug-cc-pvdz output=wfx scf=(conver=6) int=(grid=ultrafine)

title

0 1
  H   -0.619051431   1.544534084   0.000000000
  F    0.002515980   2.280176365   0.000000000
  C   -0.043530871  -0.621703344   0.000000000
  O   -1.040059353   0.082438816   0.000000000
  O    1.192519483  -0.128772862   0.000000000
  H    1.147414141   0.848409881   0.000000000
  C   -0.079064786  -2.116937468   0.000000000
  H   -1.106382181  -2.462294723   0.000000000
  H    0.445152126  -2.493611730  -0.877155210
  H    0.445152126  -2.493611730   0.877155210

2.13_0.95_hydrogenfluoride--aceticacid.wfx


