%nprocs=4
%mem=2GB
#p hf aug-cc-pvdz output=wfx scf=(conver=6) int=(grid=ultrafine)

title

0 1
  H   -0.619051431   1.544534084   0.000000000
  F    0.002515980   2.280176365   0.000000000
  C   -0.087847495  -0.775608110   0.000000000
  O   -1.084375977  -0.071465950   0.000000000
  O    1.148202859  -0.282677628   0.000000000
  H    1.103097517   0.694505115   0.000000000
  C   -0.123381410  -2.270842234   0.000000000
  H   -1.150698805  -2.616199489   0.000000000
  H    0.400835502  -2.647516496  -0.877155210
  H    0.400835502  -2.647516496   0.877155210

2.13_1.05_hydrogenfluoride--aceticacid.wfx


