%nprocs=4
%mem=2GB
#p hf aug-cc-pvdz output=wfx scf=(conver=6) int=(grid=ultrafine)

title

0 1
  H    0.576809073  -1.955916470   0.000000000
  F    0.003549381  -2.709931439   0.000000000
  H   -1.765431747   1.038871652   1.387041896
  H   -0.304666717   0.542772239   2.281766459
  H   -1.234167996  -0.681104952   1.372224497
  H   -1.234167996  -0.681104952  -1.372224497
  H   -0.304666717   0.542772239  -2.281766459
  H   -1.765431747   1.038871652  -1.387041896
  O    0.492096361   2.079307859   0.000000000
  S    0.123961119   0.690633542   0.000000000
  O    1.185515418  -0.307571711   0.000000000
  C   -0.919171630   0.358319456   1.404017025
  C   -0.919171630   0.358319456  -1.404017025

2.16_1.05_hydrogenfluoride--dimethylsulfone.wfx


