%nprocs=4
%mem=2GB
#p hf aug-cc-pvdz output=wfx scf=(conver=6) int=(grid=ultrafine)

title

0 1
  H   -1.794417763   0.960379044   1.387041896
  H   -0.333652733   0.464279631   2.281766459
  H   -1.263154012  -0.759597560   1.372224497
  H   -1.263154012  -0.759597560  -1.372224497
  H   -0.333652733   0.464279631  -2.281766459
  H   -1.794417763   0.960379044  -1.387041896
  O    0.463110345   2.000815251   0.000000000
  S    0.094975103   0.612140934   0.000000000
  O    1.156529402  -0.386064319   0.000000000
  C   -0.948157646   0.279826848   1.404017025
  C   -0.948157646   0.279826848  -1.404017025

2.16_mon2_hydrogenfluoride--dimethylsulfone.wfx


