%nprocs=4
%mem=2GB
#p hf aug-cc-pvdz output=wfx scf=(conver=6) int=(grid=ultrafine)

title

0 1
  H    0.406762108   0.133290130  -1.762928283
  F    0.361002338   0.018437823  -2.690592045
  H   -0.644515204  -0.209248480   2.814834934
  H    1.112879407  -0.082476622   2.450177520
  H    0.086437120   1.359389854   2.322338515
  C    0.115770566   0.279278212   2.220404383
  N   -0.144716157  -0.033610128   0.782945610
  O    0.641393520   0.454426560  -0.024817004
  O   -1.090932112  -0.732098253   0.502372259

2.17_1.00_hydrogenfluoride--nitromethane.wfx


