%nprocs=4
%mem=2GB
#p hf aug-cc-pvdz output=wfx scf=(conver=6) int=(grid=ultrafine)

title

0 1
  H   -0.663814545  -1.783013250  -0.584817021
  F   -0.548041860  -2.727549038  -0.693818430
  C    1.507715472  -0.155873798   0.621239526
  H    1.195660259  -0.930033478   1.319481451
  H    2.308674210   0.431367111   1.064477245
  H    1.877914005  -0.662338785  -0.267975301
  C    0.307222881   0.673239128   0.245089011
  O   -0.697449490   0.177977424  -0.269725057
  N    0.368743969   1.993484283   0.493499559
  H    1.198831606   2.368340733   0.913124436
  C   -0.730985427   2.887658190   0.171499398
  H   -1.633323693   2.594450484   0.704933606
  H   -0.455067321   3.897653241   0.459604755
  H   -0.946275033   2.863183357  -0.895170423

2.18_1.25_hydrogenfluoride--Nmethylacetamide.wfx


