%nprocs=4
%mem=2GB
#p hf aug-cc-pvdz output=wfx scf=(conver=6) int=(grid=ultrafine)

title

0 1
  H    0.245679854  -0.156030376  -1.895693416
  F    0.414251896   0.179912897  -2.746626711
  O   -0.020980980  -0.677652842  -0.539452668
  S   -0.131718565  -0.137389379   0.792157660
  O    0.043339456   1.269891556   0.981980437

2.20_0.80_hydrogenfluoride--SO2.wfx


