%nprocs=4
%mem=2GB
#p hf aug-cc-pvdz output=wfx scf=(conver=6) int=(grid=ultrafine)

title

0 1
  H    0.245679854  -0.156030376  -1.895693416
  F    0.414251896   0.179912897  -2.746626711
  O   -0.054313584  -0.742855651  -0.369922574
  S   -0.165051169  -0.202592188   0.961687754
  O    0.010006852   1.204688747   1.151510530

2.20_0.90_hydrogenfluoride--SO2.wfx


