%nprocs=4
%mem=2GB
#p hf aug-cc-pvdz output=wfx scf=(conver=6) int=(grid=ultrafine)

title

0 1
  H    0.245679854  -0.156030376  -1.895693416
  F    0.414251896   0.179912897  -2.746626711
  O   -0.070979886  -0.775457055  -0.285157528
  S   -0.181717471  -0.235193592   1.046452800
  O   -0.006659450   1.172087343   1.236275577

2.20_0.95_hydrogenfluoride--SO2.wfx


