%nprocs=4
%mem=2GB
#p hf aug-cc-pvdz output=wfx scf=(conver=6) int=(grid=ultrafine)

title

0 1
  H   -0.584351614  -1.027562335   0.000000000
 Cl   -0.012904668  -2.252533912   0.000000000
  H    2.018981129   1.500188432   0.000000000
  H    1.440578334  -0.135281143   0.000000000
  H   -0.835280158   3.037950724  -0.877696901
  H   -0.835280158   3.037950724   0.877696901
  H    0.676060541   3.349568551   0.000000000
  O   -0.982337847   0.512079055   0.000000000
  C   -0.023453023   1.286323250   0.000000000
  N    1.251311323   0.856398442   0.000000000
  C   -0.247710171   2.775880559   0.000000000

2.22_1.00_hydrogenchloride--acetamide.wfx


