%nprocs=4
%mem=2GB
#p hf aug-cc-pvdz output=wfx scf=(conver=6) int=(grid=ultrafine)

title

0 1
  H   -1.798826983  -1.391248371  -1.388755889
  H   -0.329106969  -0.919343595  -2.281738262
  H   -1.239014392   0.318340740  -1.372970259
  H   -1.239014392   0.318340740   1.372970259
  H   -0.329106969  -0.919343595   2.281738262
  H   -1.798826983  -1.391248371   1.388755889
  O    0.421692584  -2.480688348   0.000000000
  S    0.097004017  -1.080271927   0.000000000
  O    1.180896421  -0.111411113   0.000000000
  C   -0.940449090  -0.726021226  -1.403732425
  C   -0.940449090  -0.726021226   1.403732425

2.24_mon2_hydrogenchloride--dimethylsulfone.wfx


