%nprocs=4
%mem=2GB
#p hf aug-cc-pvdz output=wfx scf=(conver=6) int=(grid=ultrafine)

title

0 1
  H   -0.130950748  -0.024654388   0.445363631
 Cl    0.439378631  -0.847372435   1.292470218
  O   -1.406530142   2.121850948  -2.056199609
  H   -1.247607077   3.044392068  -1.841323748
  C   -0.820918339   1.818435600  -3.326691694
  H    0.256992305   1.985584942  -3.321003395
  H   -1.012656334   0.765762226  -3.511961235
  H   -1.281258716   2.408718250  -4.119413026

2.26_2.00_hydrogenchloride--methanol.wfx


