%nprocs=4
%mem=2GB
#p hf aug-cc-pvdz output=wfx scf=(conver=6) int=(grid=ultrafine)

title

0 1
  H   -0.130950748  -0.024654388   0.445363631
 Cl    0.439378631  -0.847372435   1.292470218
  O   -0.736850960   0.994935647  -0.742878908
  H   -0.577927895   1.917476767  -0.528003047
  C   -0.151239157   0.691520299  -2.013370993
  H    0.926671487   0.858669641  -2.007682694
  H   -0.342977152  -0.361153075  -2.198640534
  H   -0.611579534   1.281802949  -2.806092325

2.26_0.95_hydrogenchloride--methanol.wfx


