%nprocs=4
%mem=2GB
#p hf aug-cc-pvdz output=wfx scf=(conver=6) int=(grid=ultrafine)

title

0 1
  H    0.871142764  -2.312108758   0.000000000
 Cl    0.307298170  -3.478726849   0.000000000
  P    0.649082379   2.389638095   0.000000000
 Cl   -0.576256230   2.280371160   1.584057720
 Cl   -0.576256230   2.280371160  -1.584057720
 Cl    1.301262507   4.287570909   0.000000000
  O    1.719683410   1.399305032   0.000000000

2.28_2.00_hydrogenchloride--POCl3.wfx


