%nprocs=4
%mem=2GB
#p hf aug-cc-pvdz output=wfx scf=(conver=6) int=(grid=ultrafine)

title

0 1
  H    0.164404635  -0.143388383  -1.463844896
 Cl    0.448835015   0.375928693  -2.606531987
  O   -0.196698972  -0.784060509   0.020671626
  S   -0.248977099  -0.256743748   1.358828390
  O    0.063756415   1.124918620   1.569837030

2.29_0.80_hydrogenchloride--SO2.wfx


