%nprocs=4
%mem=2GB
#p hf aug-cc-pvdz output=wfx scf=(conver=6) int=(grid=ultrafine)

title

0 1
  H   -0.064352184  -0.188326900  -0.093549965
 Cl    0.085737575   0.878306338   0.638965120
  O   -0.179930591  -1.453796941  -1.021648175
  H   -0.298242989  -1.219175060  -1.946322467
  H    0.607852749  -2.003724418  -0.989318914

2.31_0.85_hydrogenchloride--water.wfx


