%nprocs=4
%mem=2GB
#p hf aug-cc-pvdz output=wfx scf=(conver=6) int=(grid=ultrafine)

title

0 1
  H   -0.064352184  -0.188326900  -0.093549965
 Cl    0.085737575   0.878306338   0.638965120
  O   -0.207125511  -1.751554598  -1.240024224
  H   -0.325437909  -1.516932717  -2.164698516
  H    0.580657829  -2.301482075  -1.207694963

2.31_1.05_hydrogenchloride--water.wfx


