%nprocs=4
%mem=2GB
#p hf aug-cc-pvdz output=wfx scf=(conver=6) int=(grid=ultrafine)

title

0 1
  H    0.309262970   0.454463349  -0.100684978
 Br   -0.518597461   1.622144528   0.192620142
  H   -1.311244296  -2.652547125  -0.657666921
  H   -1.189883320  -1.304458673   0.489006082
  H   -0.800550089  -2.973544266   0.986835145
  H    2.460083911  -3.041216060  -0.935046842
  H    0.956941952  -3.979050777  -1.158205577
  C   -0.742248495  -2.243197382   0.179704670
  C    0.687089877  -2.051510349  -0.252948987
  O    1.179601232  -0.949795171  -0.401944771
  C    1.497597752  -3.295611355  -0.502729585
  H    1.650371171  -3.819598328   0.442859784

2.32_0.95_hydrogenbromide--acetone.wfx


