%nprocs=4
%mem=2GB
#p hf aug-cc-pvdz output=wfx scf=(conver=6) int=(grid=ultrafine)

title

0 1
  H    0.309262970   0.454463349  -0.100684978
 Br   -0.518597461   1.622144528   0.192620142
  H   -1.402858850  -2.504730439  -0.625955364
  H   -1.281497874  -1.156641987   0.520717639
  H   -0.892164643  -2.825727580   1.018546702
  H    2.368469357  -2.893399374  -0.903335285
  H    0.865327398  -3.831234091  -1.126494020
  C   -0.833863049  -2.095380696   0.211416227
  C    0.595475323  -1.903693663  -0.221237430
  O    1.087986678  -0.801978485  -0.370233214
  C    1.405983198  -3.147794669  -0.471018028
  H    1.558756617  -3.671781642   0.474571341

2.32_0.85_hydrogenbromide--acetone.wfx


