%nprocs=4
%mem=2GB
#p hf aug-cc-pvdz output=wfx scf=(conver=6) int=(grid=ultrafine)

title

0 1
  H   -0.163536921  -0.330059341  -0.667407782
 Br   -0.404759841   0.050558093  -2.024235094
 Cl   -0.601769029  -1.636881110   1.942242126
  O   -1.793367689  -1.013950821   2.460497457
  O   -0.821926094  -2.601032335   0.907375237
  O    0.144342089  -0.357654367   1.020108703
  H   -0.127833329   0.463275732   1.459665136

2.33_0.80_hydrogenbromide--chloricacid.wfx


