%nprocs=4
%mem=2GB
#p hf aug-cc-pvdz output=wfx scf=(conver=6) int=(grid=ultrafine)

title

0 1
  H    1.806348164   2.347497619   0.971267074
  H    1.176848421   2.501657628  -0.690203739
  H    1.658255291   0.895174881  -0.079763698
  H    0.165863834  -0.375985863   1.840750990
  H   -1.304724910   0.387950604   2.503280273
  H    0.294699291   1.059924180   2.916577553
  O   -0.966315105   2.901918008   1.169763083
  S   -0.442395593   1.634549210   0.738037807
  O   -1.150624432   0.900905544  -0.297896633
  C    1.235771953   1.860539821   0.185857892
  C   -0.290891097   0.560185042   2.150485352

2.34_mon2_hydrogenbromide--dimethylsulfone.wfx


