%nprocs=4
%mem=2GB
#p hf aug-cc-pvdz output=wfx scf=(conver=6) int=(grid=ultrafine)

title

0 1
  H   -0.214481803   0.209632281  -0.812159610
 Br    0.536944582  -0.601473979  -1.791779043
  H    1.219657928  -0.340397311   1.637036149
  H    0.950892277  -0.162757025   3.391767953
  H    1.259826326   1.284426736   2.370969344
  H   -2.415805329   1.866454544   3.281190032
  H   -0.755032796   2.516929159   3.249340779
  C    0.807539156   0.296081702   2.415514123
  S   -0.963629547   0.440452320   2.081464616
  O   -1.085362747   1.219324506   0.797723814
  C   -1.361796316   1.624440093   3.384966441
  H   -1.178528173   1.164459309   4.354001288

2.35_1.25_hydrogenbromide--dimethylsulfoxide.wfx


