%nprocs=4
%mem=2GB
#p hf aug-cc-pvdz output=wfx scf=(conver=6) int=(grid=ultrafine)

title

0 1
  H   -0.214481803   0.209632281  -0.812159610
 Br    0.536944582  -0.601473979  -1.791779043
  H    1.463504592  -0.623111134   1.186268790
  H    1.194738942  -0.445470848   2.941000594
  H    1.503672990   1.001712913   1.920201985
  H   -2.171958664   1.583740721   2.830422673
  H   -0.511186132   2.234215336   2.798573420
  C    1.051385820   0.013367879   1.964746764
  S   -0.719782882   0.157738497   1.630697257
  O   -0.841516082   0.936610683   0.346956455
  C   -1.117949652   1.341726270   2.934199082
  H   -0.934681508   0.881745486   3.903233929

2.35_0.90_hydrogenbromide--dimethylsulfoxide.wfx


