%nprocs=4
%mem=2GB
#p hf aug-cc-pvdz output=wfx scf=(conver=6) int=(grid=ultrafine)

title

0 1
  H    0.420860164  -0.040816655   0.328447977
 Br   -0.175784307   0.059859923  -0.997558702
  O    0.908709938  -0.189408540   1.846849582
  H    1.282558518  -1.064782178   1.977002508
  C   -0.215521992  -0.016540603   2.716281232
  H   -0.606739348   0.977514810   2.521469526
  H   -0.996538170  -0.749943058   2.511319480
  H    0.086531482  -0.081688552   3.761816500

2.36_0.90_hydrogenbromide--methanol.wfx


