%nprocs=4
%mem=2GB
#p hf aug-cc-pvdz output=wfx scf=(conver=6) int=(grid=ultrafine)

title

0 1
  H    0.420860164  -0.040816655   0.328447977
 Br   -0.175784307   0.059859923  -0.997558702
  O    0.935812704  -0.197663644   1.931205227
  H    1.309661284  -1.073037282   2.061358153
  C   -0.188419227  -0.024795707   2.800636877
  H   -0.579636583   0.969259706   2.605825170
  H   -0.969435405  -0.758198162   2.595675125
  H    0.113634247  -0.089943656   3.846172145

2.36_0.95_hydrogenbromide--methanol.wfx


