%nprocs=4
%mem=2GB
#p hf aug-cc-pvdz output=wfx scf=(conver=6) int=(grid=ultrafine)

title

0 1
  H    0.420860164  -0.040816655   0.328447977
 Br   -0.175784307   0.059859923  -0.997558702
  O    0.854504408  -0.172898330   1.678138293
  H    1.228352988  -1.048271968   1.808291219
  C   -0.269727523  -0.000030393   2.547569943
  H   -0.660944879   0.994025020   2.352758236
  H   -1.050743701  -0.733432848   2.342608191
  H    0.032325951  -0.065178342   3.593105211

2.36_0.80_hydrogenbromide--methanol.wfx


