%nprocs=4
%mem=2GB
#p hf aug-cc-pvdz output=wfx scf=(conver=6) int=(grid=ultrafine)

title

0 1
  H   -0.099736348  -0.509971450  -1.362657007
 Br    0.810684881   0.437116880  -1.936976715
  H   -2.479455890  -1.320171052   0.771423715
  H    0.457356739  -1.936138220   2.748312368
  H   -0.145237878   1.092185840   0.859990016
  P   -0.999068496  -0.480085619   2.098471782
  O   -1.918557432  -0.598462671   3.220093186
  O   -1.521705459  -1.218262824   0.758961832
  O   -0.675803791   0.998310675   1.665161382
  O    0.451639258  -1.107866049   2.258211813

2.38_1.25_hydrogenbromide--phosphoricacid.wfx


