%nprocs=4
%mem=2GB
#p hf aug-cc-pvdz output=wfx scf=(conver=6) int=(grid=ultrafine)

title

0 1
  H   -0.355325381  -0.589617444   0.000000000
 Br    0.180581142  -1.914407193   0.000000000
  O   -0.944852923   1.020199200   0.000000000
  S   -0.255759621   2.283254386   0.000000000
  O    1.176859950   2.289225135   0.000000000

2.39_0.80_hydrogenbromide--SO2.wfx


