%nprocs=4
%mem=2GB
#p hf aug-cc-pvdz output=wfx scf=(conver=6) int=(grid=ultrafine)

title

0 1
  H   -0.355325381  -0.589617444   0.000000000
 Br    0.180581142  -1.914407193   0.000000000
  O   -1.129080280   1.523266901   0.000000000
  S   -0.439986978   2.786322087   0.000000000
  O    0.992632593   2.792292836   0.000000000

2.39_1.05_hydrogenbromide--SO2.wfx


