%nprocs=4
%mem=2GB
#p hf aug-cc-pvdz output=wfx scf=(conver=6) int=(grid=ultrafine)

title

0 1
  H   -0.355325381  -0.589617444   0.000000000
 Br    0.180581142  -1.914407193   0.000000000
  O   -1.276462166   1.925721062   0.000000000
  S   -0.587368864   3.188776248   0.000000000
  O    0.845250707   3.194746997   0.000000000

2.39_1.25_hydrogenbromide--SO2.wfx


