%nprocs=4
%mem=2GB
#p hf aug-cc-pvdz output=wfx scf=(conver=6) int=(grid=ultrafine)

title

0 1
  H   -0.043982742  -0.193474314  -0.260336338
  I   -0.800444696  -0.505838751  -1.684073242
  H   -0.727539124  -2.171808259   3.081336471
  H   -1.221903362  -1.480210741   1.512981488
  H   -1.695812677  -0.712457378   3.040340064
  H    1.821374106   0.548763004   3.746949318
  H    1.435941797  -1.126938045   4.198035241
  C   -0.899108256  -1.251209789   2.523252150
  C    0.343188106  -0.398208115   2.518262056
  O    0.785530211   0.098633688   1.502346848
  C    1.022856628  -0.179752026   3.845600591
  H    0.302168332   0.148685552   4.595225230

2.43_1.05_hydrogeniodide--acetone.wfx


