%nprocs=4
%mem=2GB
#p hf aug-cc-pvdz output=wfx scf=(conver=6) int=(grid=ultrafine)

title

0 1
  H   -0.767039741  -2.185718164   2.997399176
  H   -1.261403979  -1.494120646   1.429044193
  H   -1.735313294  -0.726367283   2.956402769
  H    1.781873489   0.534853099   3.663012023
  H    1.396441180  -1.140847950   4.114097946
  C   -0.938608873  -1.265119694   2.439314855
  C    0.303687489  -0.412118020   2.434324761
  O    0.746029594   0.084723783   1.418409553
  C    0.983356011  -0.193661931   3.761663296
  H    0.262667715   0.134775647   4.511287935

2.43_mon2_hydrogeniodide--acetone.wfx


