%nprocs=4
%mem=2GB
#p hf aug-cc-pvdz output=wfx scf=(conver=6) int=(grid=ultrafine)

title

0 1
  H   -0.220400800   0.435720945  -1.006476719
  I   -0.542220943  -0.870537170  -1.898724404
 Br   -1.031993753  -1.332922104   3.273578168
  O   -0.632888282  -1.629449120   4.813077242
  O   -2.565952967  -0.860121738   3.165280790
  O   -0.071649202   0.211998562   2.949267012
  H    0.056931609   0.599312876   3.830873482

2.44_1.50_hydrogeniodide--bromicacid.wfx


