%nprocs=4
%mem=2GB
#p hf aug-cc-pvdz output=wfx scf=(conver=6) int=(grid=ultrafine)

title

0 1
  H   -0.220400800   0.435720945  -1.006476719
  I   -0.542220943  -0.870537170  -1.898724404
 Br   -1.091494392  -1.243433150   1.691280676
  O   -0.692388921  -1.539960168   3.230779750
  O   -2.625453606  -0.770632786   1.582983298
  O   -0.131149841   0.301487516   1.366969519
  H   -0.002569030   0.688801828   2.248575990

2.44_0.90_hydrogeniodide--bromicacid.wfx


