%nprocs=4
%mem=2GB
#p hf aug-cc-pvdz output=wfx scf=(conver=6) int=(grid=ultrafine)

title

0 1
  H   -0.790334198   0.049270830   0.350571802
  I    0.016018952   0.073690300   1.770702494
  H    1.857346253  -1.388569762  -2.481550233
  H    0.369901820  -2.273293774  -2.051515768
  H    1.230135740  -1.340356041  -0.797116264
  H    1.228438895   1.401305004  -0.843808227
  H    0.368423342   2.289613688  -2.130399661
  H    1.856599345   1.391367885  -2.528550819
  O   -0.301316684  -0.019306640  -3.692013972
  S   -0.050995399   0.004842047  -2.275635104
  O   -1.177280037   0.019874431  -1.361327005
  C    0.972555873  -1.390796284  -1.851720720
  C    0.971441286   1.414944292  -1.899663725

2.45_0.90_hydrogeniodide--dimethylsulfone.wfx


