%nprocs=4
%mem=2GB
#p hf aug-cc-pvdz output=wfx scf=(conver=6) int=(grid=ultrafine)

title

0 1
  H    0.556335727  -0.041805460   0.741131902
  I   -0.132136610   0.038478156  -0.745646310
  O    1.132427770  -0.226841032   2.722019579
  H    1.461002019  -1.122254880   2.836494559
  C   -0.051540197  -0.054567315   3.505078908
  H   -0.381911379   0.967873715   3.346696144
  H   -0.845193946  -0.733341183   3.188247226
  H    0.153781321  -0.200296977   4.566304145

2.46_1.10_hydrogeniodide--methanol.wfx


