%nprocs=4
%mem=2GB
#p hf aug-cc-pvdz output=wfx scf=(conver=6) int=(grid=ultrafine)

title

0 1
  H   -0.394127428  -1.488193020  -0.018286073
  I   -0.060700150  -0.390244536  -1.242531023
  C   -0.787303720  -0.337086523   2.345637345
  H    0.194233586   0.030360257   2.053137256
  H   -0.976724172  -0.073302164   3.383527966
  H   -1.515630512   0.160143635   1.708205870
  C   -0.850211534  -1.822188200   2.098379667
  O   -0.661746858  -2.317202359   0.984828233
  N   -1.125224941  -2.606660604   3.155819412
  H   -1.272218231  -2.177954384   4.050674864
  C   -1.210736396  -4.052899902   3.037997618
  H   -0.264220960  -4.467896173   2.696251509
  H   -1.454978471  -4.468056920   4.011227988
  H   -1.980912597  -4.334224629   2.322316947

2.47_0.80_hydrogeniodide--Nmethylacetamide.wfx


