%nprocs=4
%mem=2GB
#p hf aug-cc-pvdz output=wfx scf=(conver=6) int=(grid=ultrafine)

title

0 1
  H   -0.394127428  -1.488193020  -0.018286073
  I   -0.060700150  -0.390244536  -1.242531023
  C   -0.804029934  -0.388899607   2.408331990
  H    0.177507372  -0.021452827   2.115831901
  H   -0.993450386  -0.125115248   3.446222611
  H   -1.532356726   0.108330551   1.770900515
  C   -0.866937748  -1.874001284   2.161074312
  O   -0.678473072  -2.369015443   1.047522878
  N   -1.141951155  -2.658473688   3.218514057
  H   -1.288944445  -2.229767468   4.113369509
  C   -1.227462610  -4.104712986   3.100692263
  H   -0.280947174  -4.519709257   2.758946154
  H   -1.471704685  -4.519870004   4.073922633
  H   -1.997638811  -4.386037713   2.385011592

2.47_0.85_hydrogeniodide--Nmethylacetamide.wfx


