%nprocs=4
%mem=2GB
#p hf aug-cc-pvdz output=wfx scf=(conver=6) int=(grid=ultrafine)

title

0 1
  H    0.007478603   0.065599768  -0.422887203
  I    0.140066758   1.105359789  -1.659105263
  P   -0.340958880   0.552435705   2.334774907
 Cl   -1.919475240   1.748695111   2.003760950
 Cl    1.223874768   1.809742539   2.387605119
 Cl   -0.562448828  -0.040873384   4.242460022
  O   -0.203430380  -0.540548832   1.382034049

2.48_0.90_hydrogeniodide--POCl3.wfx


