%nprocs=4
%mem=2GB
#p hf aug-cc-pvdz output=wfx scf=(conver=6) int=(grid=ultrafine)

title

0 1
  H    0.007478603   0.065599768  -0.422887203
  I    0.140066758   1.105359789  -1.659105263
  P   -0.598736525  -0.188412583   4.540789771
 Cl   -2.177252885   1.007846823   4.209775814
 Cl    0.966097123   1.068894251   4.593619983
 Cl   -0.820226473  -0.781721672   6.448474886
  O   -0.461208025  -1.281397120   3.588048913

2.48_2.00_hydrogeniodide--POCl3.wfx


