%nprocs=4
%mem=2GB
#p hf aug-cc-pvdz output=wfx scf=(conver=6) int=(grid=ultrafine)

title

0 1
  H   -0.724097678  -0.806459658   0.719600863
  I    0.234343463   0.488298445   0.471807322
  O   -1.857019495  -2.570209083   0.970058149
  H   -2.020545178  -2.976310990   0.114307869
  H   -1.349138204  -3.215943025   1.469108523

2.51_1.05_hydrogeniodide--water.wfx


