%nprocs=4
%mem=2GB
#p hf aug-cc-pvdz output=wfx scf=(conver=6) int=(grid=ultrafine)

title

0 1
  C    0.361849245   3.591379706   0.000000000
  H    1.206463442   2.946297093   0.000000000
  C   -0.599421873   4.302696561   0.000000000
  H   -1.448447871   4.939394767   0.000000000
  H   -1.103050011   1.523752839   0.000000000
  H    2.255235382  -1.691420293   0.000000000
  C   -1.561594635  -0.552881777   0.000000000
  C   -0.688285074   0.523766885   0.000000000
  P    1.039758329   0.403775584   0.000000000
  C    1.239004147  -1.317345175   0.000000000
  C    0.203986448  -2.239855128   0.000000000
  C   -1.139023418  -1.878094954   0.000000000
  H    0.448241738  -3.295088919   0.000000000
  H   -1.885638849  -2.659982868   0.000000000
  H   -2.626967646  -0.357306346   0.000000000

3.03_0.85_ethyne--phosphorine.wfx


