%nprocs=4
%mem=2GB
#p hf aug-cc-pvdz output=wfx scf=(conver=6) int=(grid=ultrafine)

title

0 1
  H    1.862596983   1.465910350  -1.314555327
  H    0.338101148   2.345973541  -1.314620765
  H    0.760132951   1.316508532  -2.696223581
  H    1.862586745  -1.465947732  -1.314533183
  H    0.760172452  -1.316484336  -2.696234655
  H    0.338072979  -2.345980262  -1.314675268
  H   -2.200727525   0.880116978  -1.314389945
  H   -2.200691810  -0.880172543  -1.314467206
  H   -1.520194107   0.000046735  -2.696090061
  P    0.000063098  -0.000007704  -0.746234670
  C    0.815799320   1.413005095  -1.610656586
  C    0.815800071  -1.413012944  -1.610668456
  C   -1.631559383  -0.000003233  -1.610525128

3.04_mon2_ethyne--trimethylphosphine.wfx


