%nprocs=4
%mem=2GB
#p hf aug-cc-pvdz output=wfx scf=(conver=6) int=(grid=ultrafine)

title

0 1
  N   -0.233556663   3.539110902   0.000000000
  H   -0.767401299   2.676750923   0.000000000
  H   -0.515895411   4.069148581   0.814742626
  H   -0.515895411   4.069148581  -0.814742626
  H   -2.874599091  -1.694349852   0.000000000
  H   -1.626376369  -2.568504685  -0.885747315
  H   -1.626376369  -2.568504685   0.885747315
  H    1.437649363   1.193066675   0.000000000
  H    1.943607887  -2.443699288  -0.874793964
  H    2.490379447   0.072391170   0.876398457
  H    2.490379447   0.072391170  -0.876398457
  H    0.530590403  -3.039774772   0.000000000
  H    1.943607887  -2.443699288   0.874793964
  P   -0.822956278  -0.394427164   0.000000000
  C    0.782162912  -0.879146891   0.000000000
  C    1.845720534   0.184446188   0.000000000
  C    1.307576107  -2.281859856   0.000000000
  C   -1.820171107  -1.964879093   0.000000000

3.06_1.10_ammonia--phosphaalkene.wfx


