%nprocs=4
%mem=2GB
#p hf aug-cc-pvdz output=wfx scf=(conver=6) int=(grid=ultrafine)

title

0 1
  N   -0.233556663   3.539110902   0.000000000
  H   -0.767401299   2.676750923   0.000000000
  H   -0.515895411   4.069148581   0.814742626
  H   -0.515895411   4.069148581  -0.814742626
  H   -2.872073864  -1.554750848   0.000000000
  H   -1.623851142  -2.428905681  -0.885747315
  H   -1.623851142  -2.428905681   0.885747315
  H    1.440174590   1.332665679   0.000000000
  H    1.946133114  -2.304100284  -0.874793964
  H    2.492904674   0.211990174   0.876398457
  H    2.492904674   0.211990174  -0.876398457
  H    0.533115630  -2.900175768   0.000000000
  H    1.946133114  -2.304100284   0.874793964
  P   -0.820431051  -0.254828160   0.000000000
  C    0.784688139  -0.739547887   0.000000000
  C    1.848245761   0.324045192   0.000000000
  C    1.310101334  -2.142260852   0.000000000
  C   -1.817645880  -1.825280089   0.000000000

3.06_1.05_ammonia--phosphaalkene.wfx


