%nprocs=4
%mem=2GB
#p hf aug-cc-pvdz output=wfx scf=(conver=6) int=(grid=ultrafine)

title

0 1
  N    0.293708948   3.065122439   0.000000000
  H    0.918460321   2.265199024   0.000000000
  H    0.519131365   3.622803887  -0.814146044
  H    0.519131365   3.622803887   0.814146044
  H    1.101357575  -2.436726209   0.880350997
  H    1.101357575  -2.436726209  -0.880350997
  H   -0.429276294  -2.603851255   0.000000000
  H   -0.271327627  -0.275090280   2.346889984
  H   -1.655589428  -0.680716837   1.314488545
  H   -1.087805756   0.997754233   1.434629011
  H   -0.271327627  -0.275090280  -2.346889984
  H   -1.087805756   0.997754233  -1.434629011
  H   -1.655589428  -0.680716837  -1.314488545
  P    0.397260091  -0.272900257   0.000000000
  C    0.546437715  -2.114836523   0.000000000
  C   -0.773809646  -0.044417361   1.408288849
  C   -0.773809646  -0.044417361  -1.408288849

3.07_0.95_ammonia--trimethylphosphine.wfx


