%nprocs=4
%mem=2GB
#p hf aug-cc-pvdz output=wfx scf=(conver=6) int=(grid=ultrafine)

title

0 1
  H    1.385081331   1.676254128   2.858440569
  H   -0.244411054   1.869269568   2.179573999
  H    0.133702981   0.461093870   3.197370988
  H   -2.100393725  -2.792585023   1.037850638
  H    2.429754333   0.627241515  -1.379065228
  H   -2.439212598  -1.490751985  -0.121002939
  H   -1.260108665  -2.758597072  -0.527543181
  H    1.911681327  -0.499913661  -2.648740232
  O    0.909861086  -0.699654017  -0.888863019
  P   -0.103308687  -0.035686494   0.186805044
  O    0.984920251   0.423589559   1.305649773
  C    0.529635531   1.146536625   2.448367249
  O   -0.622452688  -1.400754956   0.906463669
  C   -1.663894044  -2.148146128   0.279808384
  C    1.570406977   0.144212382  -1.843271480
  H    0.892845836   0.899695096  -2.242735645

3.08_mon2_ammonia--trimethylphosphite.wfx


