%nprocs=4
%mem=2GB
#p hf aug-cc-pvdz output=wfx scf=(conver=6) int=(grid=ultrafine)

title

0 1
  H   -1.804429326  -0.727736548  -0.820149208
  H   -1.225039976  -2.386085573  -0.637096432
  H   -0.809579685  -1.462958596  -2.093717407
  H    0.014890965   1.469658755  -0.944634533
  H    0.874990756   0.553038491  -2.199194060
  H    1.761220231   1.231484826  -0.820714876
  H    1.680455931  -2.878842694  -0.459206189
  H    2.802529821  -1.524174525  -0.532629024
  H    1.779785825  -1.896861026  -1.932872344
  P    0.521175942  -0.756431544  -0.134003009
  C   -0.968567256  -1.397486192  -1.015926280
  C    0.825602401   0.767362157  -1.130181834
  C    1.816516381  -1.868293624  -0.842448416

3.09_mon2_methylamine--trimethylphosphine.wfx


