%nprocs=4
%mem=2GB
#p hf aug-cc-pvdz output=wfx scf=(conver=6) int=(grid=ultrafine)

title

0 1
  O   -1.121527761   1.783086118  -0.311869827
  H   -0.268081128   1.346485238  -0.222631995
  C   -1.800164383   1.203441979  -1.415625590
  H   -2.777600875   1.676680365  -1.474937109
  H   -1.272929749   1.377157168  -2.357630495
  H   -1.941017652   0.125968981  -1.289509094
  H   -1.305670395  -1.616345765   1.426892124
  H   -1.440500385   0.149548762   1.405079544
  H   -0.404012653  -0.646481412   2.596455717
  P    1.542386565  -0.515281726  -0.350616782
  C    0.360859136  -0.602229883   0.635672941
  C   -0.754230062  -0.684444448   1.563500221

3.15_0.90_methanol--phosphaalkyne.wfx


