%nprocs=4
%mem=2GB
#p hf aug-cc-pvdz output=wfx scf=(conver=6) int=(grid=ultrafine)

title

0 1
  H    1.025275159  -0.567086190  -1.239309084
  H   -1.966318672   0.175661295   2.241527084
  C    1.414543339  -1.294750927   0.726205893
  C    0.656622082  -0.627462707  -0.223308675
  P   -0.867893668   0.133247399   0.082007396
  C   -1.065963286  -0.197702853   1.770016228
  C   -0.161607149  -0.901228743   2.551108450
  C    1.026640407  -1.427855663   2.055600680
  H   -0.387644622  -1.050579726   3.599738225
  H    1.676375294  -1.964021708   2.733165592
  H    2.355757651  -1.736400470   0.422675834

3.16_mon2_methanol--phosphorine.wfx


