%nprocs=4
%mem=2GB
#p hf aug-cc-pvdz output=wfx scf=(conver=6) int=(grid=ultrafine)

title

0 1
  P   -0.367684840  -2.751538039   0.000000000
  P   -0.477969217  -0.853095979  -1.106528992
  P   -0.477969217  -0.853095979   1.106528992
  P    1.346257085  -1.347237536   0.000000000

3.18_mon2_aceticacid--P4.wfx


