%nprocs=4
%mem=2GB
#p hf aug-cc-pvdz output=wfx scf=(conver=6) int=(grid=ultrafine)

title

0 1
  O   -0.055282958  -3.813648339   0.000000000
  H   -0.046670971  -2.851240870   0.000000000
  H    0.870130074  -4.069307195   0.000000000
  P    0.049704195   4.157370192  -1.103647172
  P   -1.096707089   2.637967746   0.000000000
  P    1.116129300   2.583106293   0.000000000
  P    0.049704195   4.157370192   1.103647172

3.20_2.00_water--P4.wfx


