%nprocs=4
%mem=2GB
#p hf aug-cc-pvdz output=wfx scf=(conver=6) int=(grid=ultrafine)

title

0 1
  P    0.744112094  -3.104102616  -0.148353380
  F    1.659188062  -2.295848043   0.879126275
  F    1.133200289  -2.338287709  -1.493177108
  H   -0.442119718  -2.346413712   0.100993132
  P    0.891767665   0.447084556   0.692593148
  P   -1.204294035  -0.168674038   0.418108372
  P   -0.610237701   1.911346819   0.014045345
  P    0.047774242   0.296563686  -1.333679370

3.21_0.80_phosphineF2--P4.wfx


