%nprocs=4
%mem=2GB
#p hf aug-cc-pvdz output=wfx scf=(conver=6) int=(grid=ultrafine)

title

0 1
  P    0.744112094  -3.104102616  -0.148353380
  F    1.659188062  -2.295848043   0.879126275
  F    1.133200289  -2.338287709  -1.493177108
  H   -0.442119718  -2.346413712   0.100993132
  P    0.605952296   1.263736934   0.811511363
  P   -1.490109404   0.647978340   0.537026587
  P   -0.896053070   2.727999197   0.132963560
  P   -0.238041127   1.113216064  -1.214761155

3.21_1.10_phosphineF2--P4.wfx


