%nprocs=4
%mem=2GB
#p hf aug-cc-pvdz output=wfx scf=(conver=6) int=(grid=ultrafine)

title

0 1
  H    0.314693874  -0.283306998  -2.727219038
  H   -2.363671238   0.026189813   1.058264554
  C    0.061248189   1.558546161  -1.702885102
  C   -0.169054615   0.204116939  -1.889820898
  P   -1.177330402  -0.788459542  -0.888765230
  C   -1.704734223   0.381945894   0.276189882
  C   -1.348735658   1.721636471   0.283443544
  C   -0.502824935   2.290209620  -0.663536240
  H   -1.743554191   2.360240882   1.064018955
  H   -0.272809527   3.343648051  -0.586739029
  H    0.712318261   2.076078939  -2.396642508

3.22_mon2_methanethiol--phosphorine.wfx


