%nprocs=4
%mem=2GB
#p hf aug-cc-pvdz output=wfx scf=(conver=6) int=(grid=ultrafine)

title

0 1
  H    2.830340409  -2.003366876  -0.312303789
  H    3.414675953  -1.333093273   1.217360608
  H    2.499245547  -0.306007439   0.104991385
  H    0.250249400  -1.623277240   0.362177193
  C    2.602582633  -1.314174713   0.495435724
  S    1.098043907  -1.823588393   1.387326264

3.23_mon1_methanethiol--trimethylphosphine.wfx


