%nprocs=4
%mem=2GB
#p hf aug-cc-pvdz output=wfx scf=(conver=6) int=(grid=ultrafine)

title

0 1
  H    0.020542336  -0.413691647  -0.573223040
  H    1.438772101  -0.686744351   0.722528447
  S    1.343149904  -0.651669470  -0.614618208
  H   -2.849578580  -3.437179708  -1.689161058
  H   -2.825296706  -3.669754374   0.061912441
  H   -1.428070562  -2.956630735  -0.754287567
  P   -3.673286312  -0.265406201  -0.365770031
  C   -3.081247022  -1.674565262  -0.560660689
  C   -2.519069156  -3.001235965  -0.744708015

3.24_1.25_sulfane--phosphaalkyne.wfx


