%nprocs=4
%mem=2GB
#p hf aug-cc-pvdz output=wfx scf=(conver=6) int=(grid=ultrafine)

title

0 1
  H    0.020542336  -0.413691647  -0.573223040
  H    1.438772101  -0.686744351   0.722528447
  S    1.343149904  -0.651669470  -0.614618208
  H   -1.963059705  -3.472768215  -1.738949780
  H   -1.938777831  -3.705342881   0.012123719
  H   -0.541551687  -2.992219242  -0.804076289
  P   -2.786767436  -0.300994708  -0.415558753
  C   -2.194728147  -1.710153769  -0.610449411
  C   -1.632550281  -3.036824472  -0.794496737

3.24_0.95_sulfane--phosphaalkyne.wfx


