%nprocs=4
%mem=2GB
#p hf aug-cc-pvdz output=wfx scf=(conver=6) int=(grid=ultrafine)

title

0 1
  H    0.020542336  -0.413691647  -0.573223040
  H    1.438772101  -0.686744351   0.722528447
  S    1.343149904  -0.651669470  -0.614618208
  H   -1.667553413  -3.484631051  -1.755546021
  H   -1.643271539  -3.717205717  -0.004472522
  H   -0.246045395  -3.004082078  -0.820672530
  P   -2.491261144  -0.312857544  -0.432154994
  C   -1.899221855  -1.722016605  -0.627045652
  C   -1.337043989  -3.048687308  -0.811092978

3.24_0.85_sulfane--phosphaalkyne.wfx


