%nprocs=4
%mem=2GB
#p hf aug-cc-pvdz output=wfx scf=(conver=6) int=(grid=ultrafine)

title

0 1
  H    0.645614250   0.470582030   0.065841731
  H    1.602452768   1.491606756   1.413105006
  S    1.654629066   1.359580835   0.079663563
  P   -3.781682714  -3.067156116  -0.287879499
  H   -4.473319734  -3.160484290  -1.519836289
  H   -3.756887366  -4.467337909  -0.078839598
  H   -4.959154129  -2.871476372   0.473887554

3.25_2.00_sulfane--phosphine.wfx


