%nprocs=4
%mem=2GB
#p hf aug-cc-pvdz output=wfx scf=(conver=6) int=(grid=ultrafine)

title

0 1
  H    0.645614250   0.470582030   0.065841731
  H    1.602452768   1.491606756   1.413105006
  S    1.654629066   1.359580835   0.079663563
  P   -1.235986960  -1.032956682  -0.084489792
  H   -1.927623980  -1.126284856  -1.316446582
  H   -1.211191612  -2.433138475   0.124550109
  H   -2.413458375  -0.837276938   0.677277261

3.25_0.85_sulfane--phosphine.wfx


