%nprocs=4
%mem=2GB
#p hf aug-cc-pvdz output=wfx scf=(conver=6) int=(grid=ultrafine)

title

0 1
  H    1.519797422   2.318425902   0.423570945
  H    3.309369570   1.790796869  -0.096292673
  S    2.715564620   2.217844740   1.027759485
  H    1.180885294  -0.435447693   1.023059486
  H   -2.454375405   0.468837242  -1.730766451
  C   -0.209925282  -1.956600795   0.494158661
  C    0.280054957  -0.659940627   0.466006927
  P   -0.439386766   0.657036156  -0.398782728
  C   -1.803599706  -0.137528904  -1.113197403
  C   -2.118285597  -1.478188702  -0.952871939
  C   -1.357795672  -2.353027994  -0.183915645
  H   -2.998780149  -1.868144668  -1.448656392
  H   -1.672751053  -3.384591480  -0.110203983
  H    0.324264693  -2.701063437   1.071720372

3.26_0.95_sulfane--phosphorine.wfx


