%nprocs=4
%mem=2GB
#p hf aug-cc-pvdz output=wfx scf=(conver=6) int=(grid=ultrafine)

title

0 1
  H    0.893794006   1.515332247  -0.345187693
  H    2.645035627   1.487578252  -1.194174060
  S    2.143912497   1.919000715  -0.027657068
  H   -2.536264186  -1.094981884  -1.510609185
  H   -3.125993508  -0.364962901  -0.020826723
  H   -2.383750169  -1.975510222   0.021800447
  H    0.332570674  -1.656921552  -1.831823840
  H    0.196345336  -2.478578303  -0.265681422
  H    1.451523854  -1.252883449  -0.530597921
  H   -1.241232655   0.286421067   2.138334790
  H    0.476837213  -0.047158709   1.929664882
  H   -0.684191263  -1.388378907   1.960629016
  P   -0.702013551  -0.177140737  -0.193274096
  C   -2.340897801  -0.989787466  -0.444337276
  C    0.422020748  -1.529150469  -0.753807431
  C   -0.523735195  -0.359630699   1.634213771

3.27_0.90_sulfane--trimethylphosphine.wfx


