%nprocs=4
%mem=2GB
#p hf aug-cc-pvdz output=wfx scf=(conver=6) int=(grid=ultrafine)

title

0 1
  H   -0.024515893   2.370885834   0.000000000
  F   -0.344763424   3.255166431   0.000000000
  H    3.117164999  -0.418265952   0.000000000
  H    2.491571734  -1.808702833   0.886368272
  H    2.491571734  -1.808702833  -0.886368272
  H   -2.034803693  -0.073032070   0.000000000
  H   -0.700753967  -3.497982554   0.875133540
  H   -2.418400747  -1.559527474  -0.877385818
  H   -2.418400747  -1.559527474   0.877385818
  H    0.822217782  -3.317474298   0.000000000
  H   -0.700753967  -3.497982554  -0.875133540
  P    0.697681418  -0.361995095   0.000000000
  C   -0.462950433  -1.565698798   0.000000000
  C   -1.908462329  -1.153755887   0.000000000
  C   -0.228224504  -3.044028050   0.000000000
  C    2.351920957  -1.191888098   0.000000000

3.28_1.25_hydrogenfluoride--phosphaalkene.wfx


