%nprocs=4
%mem=2GB
#p hf aug-cc-pvdz output=wfx scf=(conver=6) int=(grid=ultrafine)

title

0 1
  H   -0.309778637   1.408639177   0.033212071
  F   -0.130618760   2.322985077  -0.026014150
  H    1.925064984   0.189449439  -0.943865500
  H    2.310298860  -1.512355150  -0.652928172
  H    2.279547195  -0.365319177   0.692677896
  P   -1.102827441  -1.263133744   0.179819262
  C    0.387121175  -0.928257382  -0.038886634
  C    1.796649151  -0.639583322  -0.246509220

3.29_1.10_hydrogenfluoride--phosphaalkyne.wfx


