%nprocs=4
%mem=2GB
#p hf aug-cc-pvdz output=wfx scf=(conver=6) int=(grid=ultrafine)

title

0 1
  H    0.086945339   0.054117457  -0.739641941
  F   -0.023143367  -0.097459753  -1.657916584
  P    0.415889498   0.523004257   2.073916820
  H   -0.229088913  -0.291679523   3.030114635
  H    1.689027090   0.470157663   2.682464067
  H    0.033913368   1.750910622   2.657314420

3.30_1.25_hydrogenfluoride--phosphine.wfx


