%nprocs=4
%mem=2GB
#p hf aug-cc-pvdz output=wfx scf=(conver=6) int=(grid=ultrafine)

title

0 1
  H   -0.000048316  -0.000060220  -2.097871376
  F   -0.000072473  -0.000051513  -3.047168784
  H   -3.432967033   0.005741546   0.316121949
  H   -2.587266896  -0.576501268  -1.133287529
  H   -2.538885220  -1.529781587   0.369566271
  H    1.712078216  -2.975580330   0.316599664
  H   -0.055552131   2.963525945   0.369994247
  H    1.793047592  -1.952486827  -1.133137251
  H    2.594363995  -1.433229565   0.369496129
  H    1.721268001   2.970214962   0.315805791
  O    0.888983877   1.114979286   0.405148163
  P   -0.000001819  -0.000058574  -0.347827235
  O   -1.410107202   0.212370997   0.405210394
  C   -2.555540032  -0.522621050  -0.043840253
  O    0.521199225  -1.327386598   0.405258755
  C    1.730596497  -1.951633810  -0.043685730
  C    0.824871417   2.474466247  -0.043806820
  H    0.793607456   2.528937393  -1.133238621

3.33_0.80_hydrogenfluoride--trimethylphosphite.wfx


