%nprocs=4
%mem=2GB
#p hf aug-cc-pvdz output=wfx scf=(conver=6) int=(grid=ultrafine)

title

0 1
  H    0.373563736   0.965915426   0.000000000
 Cl    0.159554978   2.242092151   0.000000000
  H   -2.120131706  -2.652596950  -0.883965785
  H   -1.783040760  -1.160652962   0.000000000
  H   -2.120131706  -2.652596950   0.883965785
  P    1.288635248  -2.912653756   0.000000000
  C   -0.212586150  -2.560793213   0.000000000
  C   -1.629817712  -2.241429798   0.000000000

3.35_1.50_hydrogenchloride--phosphaalkyne.wfx


