%nprocs=4
%mem=2GB
#p hf aug-cc-pvdz output=wfx scf=(conver=6) int=(grid=ultrafine)

title

0 1
  H    0.000000010   0.579234249   0.000000000
 Cl    0.000000019   1.877115859   0.000000000
  P   -0.000000028  -2.497399414   0.000000000
  H   -0.602085116  -3.237965634   1.042841949
  H   -0.602085116  -3.237965634  -1.042841949
  H    1.204170148  -3.237965648   0.000000000

3.36_1.25_hydrogenchloride--phosphine.wfx


