%nprocs=4
%mem=2GB
#p hf aug-cc-pvdz output=wfx scf=(conver=6) int=(grid=ultrafine)

title

0 1
  H   -1.864508700  -1.301926706   1.468593928
  H   -0.339586304  -1.301926754   2.349008984
  H   -0.774556857  -2.696447540   1.341571094
  H   -1.864508700  -1.301926706  -1.468593928
  H   -0.774556857  -2.696447540  -1.341571094
  H   -0.339586304  -1.301926754  -2.349008984
  H    2.204094478  -1.301926478   0.880414679
  H    2.204094478  -1.301926478  -0.880414679
  H    1.549113222  -2.696447102   0.000000000
  P    0.000000945  -0.781753738   0.000000000
  C   -0.821113208  -1.609659060   1.422209664
  C   -0.821113208  -1.609659060  -1.422209664
  C    1.642227312  -1.609658748   0.000000000

3.38_mon2_hydrogenchloride--trimethylphosphine.wfx


