%nprocs=4
%mem=2GB
#p hf aug-cc-pvdz output=wfx scf=(conver=6) int=(grid=ultrafine)

title

0 1
  H   -0.000000499   1.434839437   0.000000000
 Cl   -0.000001086   2.766485865   0.000000000
  H   -1.864508844  -1.080267388   1.468593928
  H   -0.339586448  -1.080267436   2.349008984
  H   -0.774557001  -2.474788222   1.341571094
  H   -1.864508844  -1.080267388  -1.468593928
  H   -0.774557001  -2.474788222  -1.341571094
  H   -0.339586448  -1.080267436  -2.349008984
  H    2.204094334  -1.080267160   0.880414679
  H    2.204094334  -1.080267160  -0.880414679
  H    1.549113078  -2.474787784   0.000000000
  P    0.000000801  -0.560094420   0.000000000
  C   -0.821113352  -1.387999742   1.422209664
  C   -0.821113352  -1.387999742  -1.422209664
  C    1.642227168  -1.387999430   0.000000000

3.38_0.90_hydrogenchloride--trimethylphosphine.wfx


