%nprocs=4
%mem=2GB
#p hf aug-cc-pvdz output=wfx scf=(conver=6) int=(grid=ultrafine)

title

0 1
  H   -0.000000000   0.000000000  -1.468387165
 Br   -0.000000000   0.000000000  -2.910894635
  H    0.000000000  -2.327998980   2.278489565
  H    0.000000000   2.327998980   2.278489565
  C    0.000000000  -1.221858385   4.094128776
  C    0.000000000  -1.336254300   2.712317565
  P    0.000000000   0.000000000   1.614886745
  C    0.000000000   1.336254300   2.712317565
  C    0.000000000   1.221858385   4.094128776
  C    0.000000000   0.000000000   4.758848533
  H    0.000000000   2.126642665   4.689074487
  H    0.000000000   0.000000000   5.839769285
  H    0.000000000  -2.126642665   4.689074487

3.44_1.25_hydrogenbromide--phosphorine.wfx


