%nprocs=4
%mem=2GB
#p hf aug-cc-pvdz output=wfx scf=(conver=6) int=(grid=ultrafine)

title

0 1
  H   -0.000000000   0.000000000  -1.468387165
 Br   -0.000000000   0.000000000  -2.910894635
  H    0.000000000  -2.327998980   1.168510957
  H   -0.000000000   2.327998980   1.168510957
  C    0.000000000  -1.221858385   2.984150168
  C    0.000000000  -1.336254300   1.602338957
  P   -0.000000000   0.000000000   0.504908137
  C   -0.000000000   1.336254300   1.602338957
  C   -0.000000000   1.221858385   2.984150168
  C   -0.000000000   0.000000000   3.648869925
  H   -0.000000000   2.126642665   3.579095879
  H   -0.000000000   0.000000000   4.729790677
  H    0.000000000  -2.126642665   3.579095879

3.44_0.80_hydrogenbromide--phosphorine.wfx


