%nprocs=4
%mem=2GB
#p hf aug-cc-pvdz output=wfx scf=(conver=6) int=(grid=ultrafine)

title

0 1
  H   -0.000000000   0.000000000  -1.468387165
 Br   -0.000000000   0.000000000  -2.910894635
  H    0.000000000  -2.327998980   1.415172870
  H   -0.000000000   2.327998980   1.415172870
  C    0.000000000  -1.221858385   3.230812081
  C    0.000000000  -1.336254300   1.849000870
  P   -0.000000000   0.000000000   0.751570050
  C   -0.000000000   1.336254300   1.849000870
  C   -0.000000000   1.221858385   3.230812081
  C   -0.000000000   0.000000000   3.895531838
  H   -0.000000000   2.126642665   3.825757792
  H   -0.000000000   0.000000000   4.976452590
  H    0.000000000  -2.126642665   3.825757792

3.44_0.90_hydrogenbromide--phosphorine.wfx


