%nprocs=4
%mem=2GB
#p hf aug-cc-pvdz output=wfx scf=(conver=6) int=(grid=ultrafine)

title

0 1
  H    0.000005849  -0.520678153   0.000000000
 Br   -0.000054595  -2.022146666   0.000000000
  H   -1.865082330   2.638306142  -1.469454914
  H   -0.340008754   2.638338322  -2.350012174
  H   -0.779944327   4.037613714  -1.350936644
  H   -1.865082330   2.638306142   1.469454914
  H   -0.779944327   4.037613714   1.350936644
  H   -0.340008754   2.638338322   2.350012174
  H    2.205270770   2.638364162  -0.880516280
  H    2.205270770   2.638364162   0.880516280
  H    1.560012519   4.037643074   0.000000000
  P    0.000088563   2.134803514   0.000000000
  C   -0.822936551   2.950310620  -1.425457210
  C   -0.822936551   2.950310620   1.425457210
  C    1.646067307   2.950341844   0.000000000

3.45_1.25_hydrogenbromide--trimethylphosphine.wfx


