%nprocs=4
%mem=2GB
#p hf aug-cc-pvdz output=wfx scf=(conver=6) int=(grid=ultrafine)

title

0 1
  H    0.270599856   0.207966649  -1.311285943
 Br    0.722742179  -0.587188535  -2.409727359
  P   -0.015029053  -1.351050124   1.380174291
  P    0.763729932   0.670835826   0.999475390
  P   -1.330767051   0.169567117   0.488029893
  P   -0.718941486   0.353583638   2.592207892

3.47_0.85_hydrogenbromide--P4.wfx


