%nprocs=4
%mem=2GB
#p hf aug-cc-pvdz output=wfx scf=(conver=6) int=(grid=ultrafine)

title

0 1
  P   -0.123264662  -1.309594427   1.781583711
  P    0.655494323   0.712291523   1.400884810
  P   -1.439002660   0.211022814   0.889439313
  P   -0.827177095   0.395039335   2.993617312

3.47_mon2_hydrogenbromide--P4.wfx


