%nprocs=4
%mem=2GB
#p hf aug-cc-pvdz output=wfx scf=(conver=6) int=(grid=ultrafine)

title

0 1
  H   -0.000000075   0.857481123  -0.000000000
  I    0.000000184  -0.743998606   0.000000001
  P   -0.000000269   3.355667684  -0.000000002
  H   -0.597250509   4.097722891  -1.034468013
  H   -0.597250509   4.097722886   1.034468013
  H    1.194500723   4.097722438   0.000000000

3.50_0.95_hydrogeniodide--phosphine.wfx


