%nprocs=4
%mem=2GB
#p hf aug-cc-pvdz output=wfx scf=(conver=6) int=(grid=ultrafine)

title

0 1
  H   -0.000000075   0.857481123  -0.000000000
  I    0.000000184  -0.743998606   0.000000001
  P   -0.000000381   4.801986219  -0.000000003
  H   -0.597250621   5.544041426  -1.034468014
  H   -0.597250621   5.544041421   1.034468012
  H    1.194500611   5.544040973  -0.000000001

3.50_1.50_hydrogeniodide--phosphine.wfx


