%nprocs=4
%mem=2GB
#p hf aug-cc-pvdz output=wfx scf=(conver=6) int=(grid=ultrafine)

title

0 1
  H    0.113621135   0.012932231  -0.500806450
  I   -0.206158913   1.113863923  -1.655522928
  H   -0.744177758   1.026143767   3.119461854
  H    0.891860541  -3.151796219   4.353593056
  C   -0.681687176   0.422053534   5.157386952
  C   -0.473939185   0.228743252   3.800291638
  P    0.191964242  -1.203760135   3.095030632
  C    0.465378509  -2.168583898   4.506389560
  C    0.178057787  -1.771712372   5.803430486
  C   -0.370802363  -0.533191102   6.119419332
  H    0.390226173  -2.457625829   6.614234052
  H   -0.563836134  -0.303423771   7.157916034
  H   -1.106369233   1.361408794   5.489061528

3.51_1.50_hydrogeniodide--phosphorine.wfx


