%nprocs=4
%mem=2GB
#p hf aug-cc-pvdz output=wfx scf=(conver=6) int=(grid=ultrafine)

title

0 1
  H   -0.239386532   0.462064869  -0.598124371
  I   -0.837109405  -0.511350293  -1.741952413
  P   -1.186546602  -0.831725970   3.878005762
  P   -0.375901468   0.535463000   5.409618441
  P    0.743914649   0.168392920   3.550942360
  P   -1.131101521   1.333910538   3.502958184

3.52_1.50_hydrogeniodide--P4.wfx


