%nprocs=4
%mem=2GB
#p hf aug-cc-pvdz output=wfx scf=(conver=6) int=(grid=ultrafine)

title

0 1
  H   -0.239386532   0.462064869  -0.598124371
  I   -0.837109405  -0.511350293  -1.741952413
  P   -1.170499294  -0.730421051   5.323558678
  P   -0.359854160   0.636767919   6.855171357
  P    0.759961957   0.269697839   4.996495276
  P   -1.115054213   1.435215457   4.948511100

3.52_2.00_hydrogeniodide--P4.wfx


