%nprocs=4
%mem=2GB
#p hf aug-cc-pvdz output=wfx scf=(conver=6) int=(grid=ultrafine)

title

0 1
  C   -0.400014521  -2.245398424   0.000000000
  H   -0.887381671  -1.295343225   0.000000000
  C    0.168724755  -3.298162291   0.000000000
  H    0.665624691  -4.235919405   0.000000000
  H    1.380729443   1.158547488   1.357660484
  H    0.888163518  -0.553859250   1.356874356
  H   -0.026265486   0.637094214   2.298358228
  H   -0.026265486   0.637094214  -2.298358228
  H    0.888163518  -0.553859250  -1.356874356
  H    1.380729443   1.158547488  -1.357660484
  C    0.533934985   0.475352066   1.380780951
  S   -0.591750969   0.802535638   0.000000000
  C    0.533934985   0.475352066  -1.380780951

4.01_0.80_ethyne--dimethylsulfide.wfx


