%nprocs=4
%mem=2GB
#p hf aug-cc-pvdz output=wfx scf=(conver=6) int=(grid=ultrafine)

title

0 1
  C   -0.400014521  -2.245398424   0.000000000
  H   -0.887381671  -1.295343225   0.000000000
  C    0.168724755  -3.298162291   0.000000000
  H    0.665624691  -4.235919405   0.000000000
  H    1.639406306   2.994191494   1.357660484
  H    1.146840382   1.281784756   1.356874356
  H    0.232411378   2.472738220   2.298358228
  H    0.232411378   2.472738220  -2.298358228
  H    1.146840382   1.281784756  -1.356874356
  H    1.639406306   2.994191494  -1.357660484
  C    0.792611848   2.310996072   1.380780951
  S   -0.333074106   2.638179644   0.000000000
  C    0.792611848   2.310996072  -1.380780951

4.01_1.50_ethyne--dimethylsulfide.wfx


