%nprocs=4
%mem=2GB
#p hf aug-cc-pvdz output=wfx scf=(conver=6) int=(grid=ultrafine)

title

0 1
  C    2.106088099   0.342724641  -0.187886324
  H    1.150106433   0.623891613  -0.566455031
  C    3.169792657   0.011916680   0.248503367
  H    4.116618093  -0.276415848   0.631432631

4.02_mon1_ethyne--methanethiol.wfx


