%nprocs=4
%mem=2GB
#p hf aug-cc-pvdz output=wfx scf=(conver=6) int=(grid=ultrafine)

title

0 1
  C    2.106088099   0.342724641  -0.187886324
  H    1.150106433   0.623891613  -0.566455031
  C    3.169792657   0.011916680   0.248503367
  H    4.116618093  -0.276415848   0.631432631
  H   -3.193582724  -1.643751075   1.315046090
  H   -2.647382524  -0.050601389   1.852602272
  H   -1.485210892  -1.162365953   1.119567776
  H   -2.729429860  -1.125088614  -1.268728842
  C   -2.516701240  -0.822785524   1.099180494
  S   -2.923232650  -0.043984020  -0.498483046

4.02_1.50_ethyne--methanethiol.wfx


