%nprocs=4
%mem=2GB
#p hf aug-cc-pvdz output=wfx scf=(conver=6) int=(grid=ultrafine)

title

0 1
  C    0.088317027   1.939161876   0.000000000
  H    0.213283249   0.881623217   0.000000000
  C   -0.056920454   3.126544944   0.000000000
  H   -0.183798061   4.180110454   0.000000000
  H   -0.900525369  -2.186463375   0.969418293
  H   -0.900525369  -2.186463375  -0.969418293
  S    0.025955991  -2.223048717   0.000000000

4.03_1.10_ethyne--sulfane.wfx


