%nprocs=4
%mem=2GB
#p hf aug-cc-pvdz output=wfx scf=(conver=6) int=(grid=ultrafine)

title

0 1
  C    2.590901870  -0.049688619   0.439613382
  H    1.933231894   0.271939257  -0.338583573
  C    3.306090040  -0.417511710   1.325807274
  H    3.947155730  -0.741214569   2.107140957

4.04_mon1_ethyne--tetrahydrothiophene.wfx


