%nprocs=4
%mem=2GB
#p hf aug-cc-pvdz output=wfx scf=(conver=6) int=(grid=ultrafine)

title

0 1
  C   -0.207512111  -2.930116447   0.000000000
  H   -0.707754653  -1.987489218   0.000000000
  C    0.372962374  -3.976609526   0.000000000
  H    0.881372541  -4.908040530   0.000000000

4.05_mon1_ethyne--thioacetone.wfx


