%nprocs=4
%mem=2GB
#p hf aug-cc-pvdz output=wfx scf=(conver=6) int=(grid=ultrafine)

title

0 1
  C   -0.207512111  -2.930116447   0.000000000
  H   -0.707754653  -1.987489218   0.000000000
  C    0.372962374  -3.976609526   0.000000000
  H    0.881372541  -4.908040530   0.000000000
  H   -0.318669033   2.982507838   0.000000000
  H    1.203784065   2.704648704   0.874718892
  H    1.203784065   2.704648704  -0.874718892
  H    1.400261945  -0.955582500   0.000000000
  H    2.224650953   0.351011140  -0.874313666
  C    0.611237259   2.424463482   0.000000000
  C    0.374195140   0.944679066   0.000000000
  S   -1.124045592   0.309934943   0.000000000
  C    1.615798573   0.106660918   0.000000000
  H    2.224650953   0.351011140   0.874313666

4.05_0.85_ethyne--thioacetone.wfx


