%nprocs=4
%mem=2GB
#p hf aug-cc-pvdz output=wfx scf=(conver=6) int=(grid=ultrafine)

title

0 1
  C   -0.207512111  -2.930116447   0.000000000
  H   -0.707754653  -1.987489218   0.000000000
  C    0.372962374  -3.976609526   0.000000000
  H    0.881372541  -4.908040530   0.000000000
  H   -0.881886186   6.090787585   0.000000000
  H    0.640566912   5.812928451   0.874718892
  H    0.640566912   5.812928451  -0.874718892
  H    0.837044792   2.152697247   0.000000000
  H    1.661433800   3.459290887  -0.874313666
  C    0.048020106   5.532743229   0.000000000
  C   -0.189022013   4.052958813   0.000000000
  S   -1.687262745   3.418214690   0.000000000
  C    1.052581420   3.214940665   0.000000000
  H    1.661433800   3.459290887   0.874313666

4.05_2.00_ethyne--thioacetone.wfx


