%nprocs=4
%mem=2GB
#p hf aug-cc-pvdz output=wfx scf=(conver=6) int=(grid=ultrafine)

title

0 1
  N   -0.480235510   2.041996575   1.331835008
  H   -0.981368046   1.229130121   0.988819823
  H   -1.143757311   2.803457648   1.381443726
  C    0.089914250   1.769818472   2.650200439
  H    0.606980775   2.656938880   3.014681462
  H   -0.635234966   1.463992111   3.413467915
  H    0.833834054   0.977680137   2.564313700

4.12_mon1_methylamine--tetrahydrothiophene.wfx


