%nprocs=4
%mem=2GB
#p hf aug-cc-pvdz output=wfx scf=(conver=6) int=(grid=ultrafine)

title

0 1
  C    0.081525635   1.866465309   0.000000000
  O    1.127948263   1.259887573   0.000000000
  O   -1.116126384   1.270400679   0.000000000
  H   -0.994660153   0.288330628   0.000000000
  C   -0.035820766   3.365821424   0.000000000
  H    0.952047988   3.812781931   0.000000000
  H   -0.594014895   3.691400467  -0.876780981
  H   -0.594014895   3.691400467   0.876780981

4.16_mon1_aceticacid--dimethylsulfide.wfx


