%nprocs=4
%mem=2GB
#p hf aug-cc-pvdz output=wfx scf=(conver=6) int=(grid=ultrafine)

title

0 1
  H   -0.529875963  -2.568661203   2.528004249
  H   -0.064443336  -0.997880716   3.216686842
  H    1.102392157  -1.936280622   2.245964989
  H    1.730144554  -0.072892439  -1.171936121
  H    2.544355770  -0.432055844   0.382025682
  H    2.603752412   1.204203549  -0.302381098
  C    0.057568552  -1.665389774   2.368954424
  S   -0.599977922  -0.897208357   0.855466452
  S    0.495494760   0.830667603   0.703981315
  C    1.994030629   0.308648158  -0.190643371

4.19_mon2_methanol--dimethyldisulfide.wfx


