%nprocs=4
%mem=2GB
#p hf aug-cc-pvdz output=wfx scf=(conver=6) int=(grid=ultrafine)

title

0 1
  O   -1.117655145   0.114307846  -1.550670053
  H   -0.423216579  -0.338451426  -1.053825792
  C   -0.585710661   1.330640392  -2.045922697
  H   -1.387423241   1.844835956  -2.571686638
  H   -0.229752760   1.982642547  -1.241382733
  H    0.236851123   1.165118865  -2.747744707
  H   -0.434666314   0.205980577   2.212464858
  H    1.040154021   1.075324861   2.660996572
  H    0.377115265  -0.129663975   3.771211551
  H    0.824074190  -2.175226812   2.115137696
  C    0.518576262   0.124157378   2.725369962
  S    1.593593127  -1.097573220   1.899829872

4.20_1.50_methanol--methanethiol.wfx


