%nprocs=4
%mem=2GB
#p hf aug-cc-pvdz output=wfx scf=(conver=6) int=(grid=ultrafine)

title

0 1
  H   -1.106936216   0.459021175   1.227912970
  H    0.367884119   1.328365459   1.676444684
  H   -0.295154637   0.123376623   2.786659663
  H    0.151804288  -1.922186214   1.130585808
  C   -0.153693640   0.377197976   1.740818074
  S    0.921323225  -0.844532622   0.915277984

4.20_mon2_methanol--methanethiol.wfx


