%nprocs=4
%mem=2GB
#p hf aug-cc-pvdz output=wfx scf=(conver=6) int=(grid=ultrafine)

title

0 1
  O   -0.585825351  -1.659854852  -1.573484052
  H   -0.074872883  -1.347975847  -0.812756306
  H   -0.158298207  -2.472368998  -1.852017965
  H   -0.864004854   1.721740804   0.136712482
  H    0.635722307   2.649128470   0.023541919
  H   -0.526520668   3.038944458   1.299452818
  H   -0.226834937   0.674096180   2.527260204
  C   -0.098156905   2.234872476   0.709301449
  S    0.812129326   1.064618602   1.773758302

4.21_1.50_water--methanethiol.wfx


