%nprocs=4
%mem=2GB
#p hf aug-cc-pvdz output=wfx scf=(conver=6) int=(grid=ultrafine)

title

0 1
  H   -1.574672078   0.178271811  -2.458377114
  H   -2.644571329   0.110609461  -1.053853391
  H   -1.096912607  -0.738929143  -0.997784414
  H    0.311677077   1.572079864  -1.204710770
  C   -1.606454847   0.143945988  -1.373674509
  S   -0.906129692   1.663487353  -0.650327420

4.24_mon2_methanethiol--methanethiol.wfx


