%nprocs=4
%mem=2GB
#p hf aug-cc-pvdz output=wfx scf=(conver=6) int=(grid=ultrafine)

title

0 1
  H    1.488411113  -0.839329770  -0.946998750
  H    2.603013228  -1.844008641  -0.015336080
  H    2.559788359  -0.100175654   0.268668478
  H    0.078774260  -0.119560383   1.214778309
  C    1.957669280  -0.970558599   0.024694512
  S    0.719917690  -1.297094746   1.320350134
  H   -1.574672078   0.178271811  -2.458377114
  H   -2.644571329   0.110609461  -1.053853391
  H   -1.096912607  -0.738929143  -0.997784414
  H    0.311677077   1.572079864  -1.204710770
  C   -1.606454847   0.143945988  -1.373674509
  S   -0.906129692   1.663487353  -0.650327420

4.24_1.00_methanethiol--methanethiol.wfx


