%nprocs=4
%mem=2GB
#p hf aug-cc-pvdz output=wfx scf=(conver=6) int=(grid=ultrafine)

title

0 1
  H    2.755113220  -2.753027808  -0.032817687
  H    2.233284428  -3.660934405   1.391606817
  H    2.883045869  -2.028595610   1.588775535
  H    0.872270382  -0.865723654   0.251897806
  C    2.289789381  -2.671748578   0.945224659
  S    0.577862373  -2.061072768   0.806934935

4.25_mon1_methanethiol--tetrahydrothiophene.wfx


