%nprocs=4
%mem=2GB
#p hf aug-cc-pvdz output=wfx scf=(conver=6) int=(grid=ultrafine)

title

0 1
  H    0.940216132   0.774574813  -0.419266955
  H    0.912651072   2.631086310  -1.014683435
  S    1.346251352   1.970156198   0.068247852
  H   -2.291313432  -3.983720626   1.771740594
  H   -1.275429430  -2.525985052   1.656600855
  H   -0.579243668  -4.126352020   1.340613101
  H   -3.634758801  -2.165979870  -1.478721349
  H   -3.051213818  -1.368142234  -0.006254788
  H   -4.099527606  -2.806791769   0.105374497
  C   -1.469780469  -3.511619930   1.236765633
  S   -1.839428194  -3.394160155  -0.531933737
  C   -3.300766627  -2.327094177  -0.456719571

4.26_2.00_sulfane--dimethylsulfide.wfx


