%nprocs=4
%mem=2GB
#p hf aug-cc-pvdz output=wfx scf=(conver=6) int=(grid=ultrafine)

title

0 1
  H    0.940216132   0.774574813  -0.419266955
  H    0.912651072   2.631086310  -1.014683435
  S    1.346251352   1.970156198   0.068247852
  H   -0.762509053  -1.690916394   1.833707324
  H    0.253374949  -0.233180820   1.718567585
  H    0.949560711  -1.833547788   1.402579831
  H   -2.105954422   0.126824362  -1.416754619
  H   -1.522409439   0.924661998   0.055711942
  H   -2.570723227  -0.513987537   0.167341227
  C    0.059023910  -1.218815698   1.298732363
  S   -0.310623815  -1.101355923  -0.469967007
  C   -1.771962248  -0.034289945  -0.394752841

4.26_0.90_sulfane--dimethylsulfide.wfx


