%nprocs=4
%mem=2GB
#p hf aug-cc-pvdz output=wfx scf=(conver=6) int=(grid=ultrafine)

title

0 1
  H    0.531398318   0.644987156  -0.290550534
  H    2.238797718   0.672661953   0.638139856
  S    1.602737688   1.457777873  -0.243491684
  H   -1.563522014  -0.259685803   1.103532209
  H   -0.795551294  -1.775244894   0.167357503
  S   -1.410015867  -0.633296459  -0.175560339

4.27_0.85_sulfane--sulfane.wfx


