%nprocs=4
%mem=2GB
#p hf aug-cc-pvdz output=wfx scf=(conver=6) int=(grid=ultrafine)

title

0 1
  H   -0.346903232   0.868584639  -1.985965324
  F   -0.202685645   1.471500906  -2.693050447
  H    1.784578253  -2.108880698   2.759895182
  H    0.236493414  -2.752838982   2.173558522
  H    0.273908973  -1.293020713   3.200778219
  H   -0.725377718   1.817526116   1.042276797
  H   -1.449265457   0.788315179   2.310866393
  H   -2.406477743   1.259394215   0.891319547
  C    0.783980814  -1.847707007   2.418403423
  S    1.018116647  -0.822494885   0.933463088
  S   -0.911727458  -0.485209760   0.318514296
  C   -1.410215910   1.000788222   1.246713807

4.29_1.25_hydrogenfluoride--dimethyldisulfide.wfx


