%nprocs=4
%mem=2GB
#p hf aug-cc-pvdz output=wfx scf=(conver=6) int=(grid=ultrafine)

title

0 1
  H   -0.227014778   0.166887111  -1.353692766
  F   -0.474200276   0.715088217  -2.079126833
  H   -0.385542510   0.943561286   2.038177529
  H    1.357256978   0.784212962   2.294113370
  H    0.239637492   0.100160364   3.484335406
  H   -0.769533092  -1.682944888   1.729820546
  C    0.394862078   0.298651264   2.428708526
  S    0.481293284  -1.261919378   1.487659419

4.31_1.50_hydrogenfluoride--methanethiol.wfx


