%nprocs=4
%mem=2GB
#p hf aug-cc-pvdz output=wfx scf=(conver=6) int=(grid=ultrafine)

title

0 1
  H   -0.607657650   0.256546982   0.016152236
  F   -1.168363226   0.439472991  -0.706812055
  S    0.916125570   0.096993688   2.017741382
  P    0.470732826   2.073400290   2.635926225
  S   -2.149110193  -0.105759377   3.032733268
  S    0.295676168  -0.243916999   5.158902168
  P    0.036934786   1.824625749   4.831401156
  P   -1.658385077   1.919853673   3.351919387
  P   -0.299565014  -1.090047497   3.313177456

4.32_1.10_hydrogenfluoride--P4S3.wfx


