%nprocs=4
%mem=2GB
#p hf aug-cc-pvdz output=wfx scf=(conver=6) int=(grid=ultrafine)

title

0 1
  H   -0.607657650   0.256546982   0.016152236
  F   -1.168363226   0.439472991  -0.706812055
  S    1.470228560   0.038974308   2.745591980
  P    1.024835816   2.015380910   3.363776823
  S   -1.595007204  -0.163778756   3.760583866
  S    0.849779158  -0.301936378   5.886752766
  P    0.591037776   1.766606370   5.559251754
  P   -1.104282088   1.861834294   4.079769985
  P    0.254537976  -1.148066876   4.041028054

4.32_1.50_hydrogenfluoride--P4S3.wfx


