%nprocs=4
%mem=2GB
#p hf aug-cc-pvdz output=wfx scf=(conver=6) int=(grid=ultrafine)

title

0 1
  H   -0.328148919   0.674631615  -1.759528174
  F   -0.332598602   1.541791953  -2.147664879
  H   -1.592100927  -1.058856181   1.530577741
  H   -2.065440542   0.204016398   0.384470873
  H   -0.676422773   0.957624725   2.544140943
  H    1.838340066   0.184811190  -0.350001417
  H   -0.178423610   1.588209947   0.974222895
  H    2.061636438  -1.436816286   0.320489014
  H    1.855398623   0.643266355   2.020669896
  H    0.997768410  -0.849274124   2.389967873
  S   -0.209327329  -1.095909912  -0.453240117
  C   -1.220971750  -0.290186358   0.856257204
  C   -0.281339950   0.679181830   1.567251578
  C    1.069002240  -0.027490879   1.675872913
  C    1.398477195  -0.577348462   0.288227793

4.34_1.05_hydrogenfluoride--tetrahydrothiophene.wfx


