%nprocs=4
%mem=2GB
#p hf aug-cc-pvdz output=wfx scf=(conver=6) int=(grid=ultrafine)

title

0 1
  H   -0.260682653   0.626538723  -1.615802087
 Cl    0.105810980   1.516702620  -2.497902669
  H    1.744815825  -2.136817540   2.941521002
  H    0.146477235  -2.755413409   2.473922537
  H    0.291690660  -1.208757207   3.353292229
  H   -0.651427553   1.735942544   0.939535810
  H   -1.340877550   0.860957256   2.336853501
  H   -2.358049601   1.239027802   0.931758269
  C    0.744759121  -1.859736625   2.611011186
  S    0.966392631  -0.991992636   1.026712274
  S   -0.965324923  -0.612958471   0.446795552
  C   -1.353766627   0.971115013   1.256645098

4.36_1.10_hydrogenchloride--dimethyldisulfide.wfx


