%nprocs=4
%mem=2GB
#p hf aug-cc-pvdz output=wfx scf=(conver=6) int=(grid=ultrafine)

title

0 1
  H   -0.091693319  -0.017074137  -1.031473849
 Cl    0.643230476  -0.446203689  -2.046058423
  H    1.553568908   0.789353024   0.813103546
  H    0.901605544   1.225808667   2.416544011
  H    0.662899220   2.305980175   1.031699590
  H   -1.389782393  -1.801643012   1.282169325
  H   -0.317565169  -1.213886196   2.565306477
  H    0.344663112  -1.629788562   0.960609743
  C    0.732232596   1.267024852   1.343074446
  S   -0.841434768   0.476564498   0.919639913
  C   -0.504510415  -1.207825070   1.493981111

4.37_1.00_hydrogenchloride--dimethylsulfide.wfx


