%nprocs=4
%mem=2GB
#p hf aug-cc-pvdz output=wfx scf=(conver=6) int=(grid=ultrafine)

title

0 1
  H   -0.091693319  -0.017074137  -1.031473849
 Cl    0.643230476  -0.446203689  -2.046058423
  H    1.591055980   0.764671092   0.715547858
  H    0.939092616   1.201126735   2.318988323
  H    0.700386292   2.281298243   0.934143902
  H   -1.352295321  -1.826324944   1.184613637
  H   -0.280078097  -1.238568128   2.467750789
  H    0.382150184  -1.654470494   0.863054055
  C    0.769719668   1.242342920   1.245518758
  S   -0.803947696   0.451882566   0.822084225
  C   -0.467023343  -1.232507002   1.396425423

4.37_0.95_hydrogenchloride--dimethylsulfide.wfx


