%nprocs=4
%mem=2GB
#p hf aug-cc-pvdz output=wfx scf=(conver=6) int=(grid=ultrafine)

title

0 1
  H   -0.713230529   0.360813909  -0.389639872
 Cl   -0.975746180   1.504326327  -0.971284297
  H    2.185675308  -0.355714481   1.153656309
  H    2.710780688  -1.761544713   0.217970887
  H    2.943030236  -1.752195924   1.972428753
  H    0.309391540  -1.733174633   2.487358389
  C    2.289923504  -1.436283817   1.165249481
  S    0.661219440  -2.245311678   1.298108525

4.38_1.50_hydrogenchloride--methanethiol.wfx


