%nprocs=4
%mem=2GB
#p hf aug-cc-pvdz output=wfx scf=(conver=6) int=(grid=ultrafine)

title

0 1
  H   -0.573885324   0.231715936  -0.009838134
 Cl   -1.310853354   0.724488426  -0.947943052
  S    0.829356490  -0.008762862   1.868291204
  P    0.322334605   2.000243523   2.292331806
  S   -2.298644667  -0.180157037   2.671894864
  S   -0.024548628  -0.102725206   4.977573592
  P   -0.279074114   1.926958031   4.460697370
  P   -1.854456669   1.873542185   2.850560798
  P   -0.460504204  -1.104002129   3.164191840

4.39_0.95_hydrogenchloride--P4S3.wfx


