%nprocs=4
%mem=2GB
#p hf aug-cc-pvdz output=wfx scf=(conver=6) int=(grid=ultrafine)

title

0 1
  H   -0.343429210   0.154375710  -0.309593205
 Br    0.499588318  -0.323138206  -1.433920295
  H    1.437189802   0.857928081   1.112846798
  H    0.770513895   1.283293170   2.714210823
  H    0.540415397   2.371187336   1.333344607
  H   -1.502715483  -1.742491297   1.548531546
  H   -0.441127341  -1.156249794   2.841822506
  H    0.233880193  -1.564838444   1.239580988
  C    0.610983873   1.330875822   1.639663950
  S   -0.955018222   0.537010399   1.198305153
  C   -0.620183414  -1.147980551   1.769332465

4.44_0.80_hydrogenbromide--dimethylsulfide.wfx


