%nprocs=4
%mem=2GB
#p hf aug-cc-pvdz output=wfx scf=(conver=6) int=(grid=ultrafine)

title

0 1
  H    0.132061490  -0.386054295  -0.144426513
 Br   -0.319777356   0.407793335  -1.282933983
  H   -0.215776686   0.827952879   2.487238331
  H    1.472819174   0.766975914   3.010118608
  H    0.202761718   0.223783963   4.116768573
  H   -0.507959876  -1.838116826   2.557382447
  C    0.507723486   0.272567382   3.076376068
  S    0.750214608  -1.400814094   2.395733388

4.45_1.25_hydrogenbromide--methanethiol.wfx


