%nprocs=4
%mem=2GB
#p hf aug-cc-pvdz output=wfx scf=(conver=6) int=(grid=ultrafine)

title

0 1
  H    0.132061490  -0.386054295  -0.144426513
 Br   -0.319777356   0.407793335  -1.282933983
  H   -0.438311808   1.193266407   1.572780767
  H    1.250284052   1.132289442   2.095661044
  H   -0.019773405   0.589097491   3.202311009
  H   -0.730494999  -1.472803298   1.642924883
  C    0.285188363   0.637880910   2.161918504
  S    0.527679485  -1.035500566   1.481275824

4.45_0.80_hydrogenbromide--methanethiol.wfx


