%nprocs=4
%mem=2GB
#p hf aug-cc-pvdz output=wfx scf=(conver=6) int=(grid=ultrafine)

title

0 1
  H    0.132061490  -0.386054295  -0.144426513
 Br   -0.319777356   0.407793335  -1.282933983
  H   -0.314681184   0.990314447   2.080812747
  H    1.373914676   0.929337482   2.603693024
  H    0.103857219   0.386145531   3.710342989
  H   -0.606864375  -1.675755258   2.150956863
  C    0.408818987   0.434928950   2.669950484
  S    0.651310109  -1.238452526   1.989307804

4.45_1.05_hydrogenbromide--methanethiol.wfx


