%nprocs=4
%mem=2GB
#p hf aug-cc-pvdz output=wfx scf=(conver=6) int=(grid=ultrafine)

title

0 1
  H   -0.513232116   0.204990711  -0.024081129
 Br   -1.319093678   0.779092326  -1.062312847
  S    1.659523635  -0.153401823   3.029137316
  P    1.122288377   1.856569595   3.404979208
  S   -1.486513575  -0.342770350   3.756599884
  S    0.726312306  -0.202548221   6.117052594
  P    0.465624738   1.815217784   5.558110530
  P   -1.066558364   1.718090651   3.908559268
  P    0.348120055  -1.238786504   4.310234222

4.46_1.50_hydrogenbromide--P4S3.wfx


