%nprocs=4
%mem=2GB
#p hf aug-cc-pvdz output=wfx scf=(conver=6) int=(grid=ultrafine)

title

0 1
  H   -0.513232116   0.204990711  -0.024081129
 Br   -1.319093678   0.779092326  -1.062312847
  S    1.080122101  -0.057830481   2.214945730
  P    0.542886843   1.952140937   2.590787622
  S   -2.065915109  -0.247199008   2.942408298
  S    0.146910772  -0.106976879   5.302861008
  P   -0.113776796   1.910789126   4.743918944
  P   -1.645959898   1.813661993   3.094367683
  P   -0.231281479  -1.143215162   3.496042636

4.46_1.10_hydrogenbromide--P4S3.wfx


