%nprocs=4
%mem=2GB
#p hf aug-cc-pvdz output=wfx scf=(conver=6) int=(grid=ultrafine)

title

0 1
  H   -0.462973966   0.619411228   0.000000000
 Br    0.064311133   1.992874943   0.000000000
  H    1.626156027  -0.386718361   0.000000000
  H    2.230906040  -1.808628251   0.874089504
  H    2.230906040  -1.808628251  -0.874089504
  H   -0.689556685  -4.010526850   0.000000000
  H    0.857664118  -3.971457063  -0.874715038
  C    1.669343447  -1.469501592   0.000000000
  C    0.316445467  -2.106446689   0.000000000
  S   -1.074818895  -1.258037484   0.000000000
  C    0.315716790  -3.603511729   0.000000000
  H    0.857664118  -3.971457063   0.874715038

4.48_0.90_hydrogenbromide--thioacetone.wfx


