%nprocs=4
%mem=2GB
#p hf aug-cc-pvdz output=wfx scf=(conver=6) int=(grid=ultrafine)

title

0 1
  H    0.540227290   0.348824840   0.000000000
  I   -0.099753736  -1.210693140   0.000000000
  H   -1.031425216   2.223227607   1.355874607
  H   -0.845142369   3.999861896   1.357877629
  H    0.263336642   2.984497888   2.298518063
  H    0.263336642   2.984497888  -2.298518063
  H   -0.845142369   3.999861896  -1.357877629
  H   -1.031425216   2.223227607  -1.355874607
  C   -0.321212072   3.047510005   1.384558962
  S    0.836796935   2.926398651   0.000000000
  C   -0.321212072   3.047510005  -1.384558962

4.50_1.25_hydrogeniodide--dimethylsulfide.wfx


