%nprocs=4
%mem=2GB
#p hf aug-cc-pvdz output=wfx scf=(conver=6) int=(grid=ultrafine)

title

0 1
  H    0.540227290   0.348824840   0.000000000
  I   -0.099753736  -1.210693140   0.000000000
  H   -0.972111287   2.738742370   1.355874607
  H   -0.785828440   4.515376658   1.357877629
  H    0.322650571   3.500012650   2.298518063
  H    0.322650571   3.500012650  -2.298518063
  H   -0.785828440   4.515376658  -1.357877629
  H   -0.972111287   2.738742370  -1.355874607
  C   -0.261898143   3.563024768   1.384558962
  S    0.896110864   3.441913414   0.000000000
  C   -0.261898143   3.563024768  -1.384558962

4.50_1.50_hydrogeniodide--dimethylsulfide.wfx


