%nprocs=4
%mem=2GB
#p hf aug-cc-pvdz output=wfx scf=(conver=6) int=(grid=ultrafine)

title

0 1
  H   -0.146792520  -0.151826058  -0.121559827
  I   -0.961031022  -0.352091381  -1.542289963
  H   -0.548148696  -1.221645658   5.601899734
  H    0.316090015  -2.286884207   4.483589328
  H   -0.967016956  -1.238390181   3.864463519
  H    0.369060242   1.015440880   4.454747203
  C   -0.163935524  -1.318241294   4.591486651
  S    1.128154640  -0.075197790   4.269349813

4.51_2.00_hydrogeniodide--methanethiol.wfx


