%nprocs=4
%mem=2GB
#p hf aug-cc-pvdz output=wfx scf=(conver=6) int=(grid=ultrafine)

title

0 1
  H   -1.185622276  -1.259959792   3.406444914
  H   -0.321383565  -2.325198341   2.288134508
  H   -1.604490536  -1.276704315   1.669008699
  H   -0.268413338   0.977126746   2.259292383
  C   -0.801409104  -1.356555428   2.396031831
  S    0.490681060  -0.113511924   2.073894993

4.51_mon2_hydrogeniodide--methanethiol.wfx


