%nprocs=4
%mem=2GB
#p hf aug-cc-pvdz output=wfx scf=(conver=6) int=(grid=ultrafine)

title

0 1
  C    0.315950133  -1.637450299   0.000000000
  H    0.815403366  -0.697738209   0.000000000
  C   -0.259427185  -2.686214375   0.000000000
  H   -0.763906337  -3.619848858   0.000000000
  H   -1.196369291   4.595850211   0.893892902
  H   -1.196369291   4.595850211  -0.893892902
  H   -1.495866009   3.076946271   0.000000000
  C   -0.958390348   4.023112778   0.000000000
  F    0.411964600   3.754799037   0.000000000

5.04_2.00_ethyne--methylfluoride.wfx


