%nprocs=4
%mem=2GB
#p hf aug-cc-pvdz output=wfx scf=(conver=6) int=(grid=ultrafine)

title

0 1
  H   -1.724348231  -0.027355360  -1.474026193
  H   -1.296435492  -1.415159708  -2.484097898
  H   -1.572301525   0.160027650  -3.243538945
  H    0.527790206   1.283050936  -1.949835639
  C   -1.185008230  -0.341291707  -2.362021642
  S    0.601246922  -0.037729081  -2.172892147
  P    0.196945848  -1.122220012   0.371622286
  F   -0.840658694   0.098992708   0.451513001
  F    0.276066889  -1.429756026   1.946799500
  H    1.374991575  -0.320153710   0.333873949

5.07_0.80_methanethiol--phosphineF2.wfx


