%nprocs=4
%mem=2GB
#p hf aug-cc-pvdz output=wfx scf=(conver=6) int=(grid=ultrafine)

title

0 1
  H   -2.892878337   1.383441369  -2.418754018
  H   -2.883689658   0.154943136  -3.716907856
  H   -2.338074383  -0.283141126  -2.068670202
  C   -2.395464291   0.502439172  -2.815105902
  O   -1.041985075   0.865978670  -3.236513666
  C   -0.263382111   1.272213617  -2.307293766
  N    0.465879199   1.635454896  -1.488247684
  P    2.078679432  -1.212900202   2.415226870
  F    0.691077189  -1.565141848   1.672757456
  F    1.831419299  -2.080783758   3.741735605
  H    1.630508662   0.017356269   2.973969961

5.08_2.00_methylcyanate--phosphineF2.wfx


