%nprocs=4
%mem=2GB
#p hf aug-cc-pvdz output=wfx scf=(conver=6) int=(grid=ultrafine)

title

0 1
  H   -1.555218336   3.280517802  -1.121951360
  H   -0.612681212   2.455318645   0.078808194
  H   -0.923049042   1.181131731  -3.720677799
  H   -2.429051738   0.668594692  -2.977993807
  H   -2.089153558   2.399289358  -3.165788225
  O   -0.364178572   0.358379637  -1.248179044
  C   -0.966077393   1.363578052  -1.603947249
  N   -1.061526583   2.462080092  -0.822538061
  C   -1.649587266   1.428070868  -2.949615068
  P    0.383133592  -0.396945256   1.269116301
  F    0.547208464   1.203885984   1.473968253
  F    1.177871245  -0.820689772   2.607723855
  H    1.501351632  -0.555121784   0.408027319

5.13_1.05_acetamide--phosphineF2.wfx


