%nprocs=4
%mem=2GB
#p hf aug-cc-pvdz output=wfx scf=(conver=6) int=(grid=ultrafine)

title

0 1
  N   -0.123190330   2.110527190   0.000000000
  H    0.558813216   1.361103936   0.000000000
  H    0.057236894   2.684121101  -0.813985719
  H    0.057236894   2.684121101   0.813985719
  H   -0.813350394  -4.103304286   0.893151234
  H   -1.159673884  -2.589093501   0.000000000
  H   -0.813350394  -4.103304286  -0.893151234
  C   -0.597715534  -3.519897248   0.000000000
  F    0.765455244  -3.205382462   0.000000000

5.14_2.00_ammonia--methylfluoride.wfx


