%nprocs=4
%mem=2GB
#p hf aug-cc-pvdz output=wfx scf=(conver=6) int=(grid=ultrafine)

title

0 1
  N   -0.762680266   0.657120961   1.269302631
  H   -0.160490256  -0.155763922   1.265651164
  H   -1.193948935   0.709510332   2.182080338
  C    0.012763010   1.865373931   0.988817467
  H   -0.654275639   2.726515138   0.961290449
  H    0.811540614   2.078466282   1.708394270
  H    0.470675110   1.775094247   0.004516708
  H   -0.812615184  -1.751996951  -1.491263449
  H   -1.167992467  -0.183200842  -0.701709542
  H    0.033947386  -0.274624858  -2.029318894
  C   -0.403833896  -0.793059357  -1.178145388
  F    0.607250874  -1.031013480  -0.241847830

5.15_0.80_methylamine--methylfluoride.wfx


