%nprocs=4
%mem=2GB
#p hf aug-cc-pvdz output=wfx scf=(conver=6) int=(grid=ultrafine)

title

0 1
  C    0.117051709   1.274442082   0.000000000
  O    1.166609596   0.677312967   0.000000000
  O   -1.076602854   0.660704137   0.000000000
  H   -0.934016426  -0.304069627   0.000000000
  C   -0.022726243   2.770613513   0.000000000
  H    0.958583891   3.231480425   0.000000000
  H   -0.585458259   3.087729203  -0.876949085
  H   -0.585458259   3.087729203   0.876949085
  H    0.795436215  -3.090273534  -0.894521766
  H    1.316105237  -1.623029250   0.000000000
  H    0.795436215  -3.090273534   0.894521766
  C    0.659954681  -2.487966464   0.000000000
  F   -0.670444554  -2.017433084   0.000000000

5.19_0.95_aceticacid--methylfluoride.wfx


