%nprocs=4
%mem=2GB
#p hf aug-cc-pvdz output=wfx scf=(conver=6) int=(grid=ultrafine)

title

0 1
  H   -0.770163454   1.601593004   0.225053304
  H   -1.585668217   1.153332027  -3.663993548
  H   -2.823459128   1.891023938  -2.616371242
  H   -1.379769092   2.802466091  -3.019864446
  O   -0.427866501   0.216490318  -1.584002927
  C   -1.067650204   1.243768147  -1.602530185
  O   -1.237699597   2.015255504  -0.519423979
  C   -1.755721195   1.801712721  -2.812151365
  P    1.586554201  -2.333092887   1.660934268
  F    1.276746968  -0.877892048   2.320561804
  F    2.519638647  -2.872155855   2.849868968
  H    2.660244626  -1.888094362   0.842046987

5.20_2.00_aceticacid--phosphineF2.wfx


