%nprocs=4
%mem=2GB
#p hf aug-cc-pvdz output=wfx scf=(conver=6) int=(grid=ultrafine)

title

0 1
  O   -0.651763456   0.859061897  -0.821633806
  H   -0.380024496  -0.015871852  -0.527350537
  C   -0.239226524   1.045332194  -2.165698346
  H   -0.547568122   2.045796722  -2.461358096
  H    0.846772222   0.972653740  -2.276617859
  H   -0.709606952   0.326408629  -2.842774540
  H    0.214827647   0.647666098   1.650915558
  H   -0.224601986  -0.737923228   2.695924480
  H    1.487882965  -0.450167899   2.268092438
  C    0.456886740  -0.374652341   1.930346540
  F    0.309751581  -1.184643307   0.794974612

5.23_0.95_methanol--methylfluoride.wfx


