%nprocs=4
%mem=2GB
#p hf aug-cc-pvdz output=wfx scf=(conver=6) int=(grid=ultrafine)

title

0 1
  O    0.080066228  -1.376853631  -1.389495123
  H    0.215590518  -1.145739031  -0.463594959
  H    0.576612278  -2.185512108  -1.529153525
  H   -1.283260596   1.689080950   0.866743972
  H    0.408112602   2.234901982   0.665768362
  H   -0.376404928   1.261389066  -0.615712833
  C   -0.307641844   1.444144933   0.453632233
  F    0.145279820   0.269329202   1.071260594

5.26_1.05_water--methylfluoride.wfx


