%nprocs=4
%mem=2GB
#p hf aug-cc-pvdz output=wfx scf=(conver=6) int=(grid=ultrafine)

title

0 1
  O    0.080066228  -1.376853631  -1.389495123
  H    0.215590518  -1.145739031  -0.463594959
  H    0.576612278  -2.185512108  -1.529153525
  H   -1.286608724   1.756465151   0.939832331
  H    0.404764474   2.302286183   0.738856721
  H   -0.379753057   1.328773267  -0.542624474
  C   -0.310989973   1.511529134   0.526720592
  F    0.141931691   0.336713403   1.144348953

5.26_1.10_water--methylfluoride.wfx


