%nprocs=4
%mem=2GB
#p hf aug-cc-pvdz output=wfx scf=(conver=6) int=(grid=ultrafine)

title

0 1
  H    0.772317992   0.289446267   0.424270171
  H    2.154945825   0.503297034  -0.922890803
  S    1.244355420   1.292062670  -0.333928762
  H   -1.382527847  -0.445618861  -0.943082759
  H   -1.805009567  -2.168879833  -0.716398811
  H   -2.712481082  -0.903938558   0.161279022
  C   -1.742932991  -1.192936476  -0.239222423
  F   -0.835512725  -1.276299862   0.818990495

5.28_1.00_sulfane--methylfluoride.wfx


