%nprocs=4
%mem=2GB
#p hf aug-cc-pvdz output=wfx scf=(conver=6) int=(grid=ultrafine)

title

0 1
  H    0.772317992   0.289446267   0.424270171
  H    2.154945825   0.503297034  -0.922890803
  S    1.244355420   1.292062670  -0.333928762
  H   -2.990358564  -2.011364990  -0.548362435
  H   -3.412840284  -3.734625962  -0.321678487
  H   -4.320311799  -2.469684687   0.555999346
  C   -3.350763708  -2.758682605   0.155497901
  F   -2.443343442  -2.842045991   1.213710819

5.28_2.00_sulfane--methylfluoride.wfx


