%nprocs=4
%mem=2GB
#p hf aug-cc-pvdz output=wfx scf=(conver=6) int=(grid=ultrafine)

title

0 1
  H   -0.082052577  -0.045767382  -0.478725397
  F    0.112777497  -0.025380444  -1.387103121
  H    0.651720379   0.277079583   1.800107508
  F   -0.146214579   0.016218092   1.411807638

5.30_1.05_hydrogenfluoride--hydrogenfluoride.wfx


