%nprocs=4
%mem=2GB
#p hf aug-cc-pvdz output=wfx scf=(conver=6) int=(grid=ultrafine)

title

0 1
  H   -0.082052577  -0.045767382  -0.478725397
  F    0.112777497  -0.025380444  -1.387103121
  H    0.666997046   0.262321137   1.349980595
  F   -0.130937912   0.001459646   0.961680725

5.30_0.80_hydrogenfluoride--hydrogenfluoride.wfx


