%nprocs=4
%mem=2GB
#p hf aug-cc-pvdz output=wfx scf=(conver=6) int=(grid=ultrafine)

title

0 1
  H   -0.082052577  -0.045767382  -0.478725397
  F    0.112777497  -0.025380444  -1.387103121
  H    0.660886379   0.268224516   1.530031360
  F   -0.137048579   0.007363024   1.141731490

5.30_0.90_hydrogenfluoride--hydrogenfluoride.wfx


