%nprocs=4
%mem=2GB
#p hf aug-cc-pvdz output=wfx scf=(conver=6) int=(grid=ultrafine)

title

0 1
  H    0.246633062   1.009009125   0.000000000
  F   -0.152661221   1.851828982   0.000000000
  H   -0.488738209  -2.203048688   0.895479757
  H   -1.395443882  -0.945182222   0.000000000
  H   -0.488738209  -2.203048688  -0.895479757
  C   -0.519844008  -1.588790816   0.000000000
  F    0.626171537  -0.769622424   0.000000000

5.31_1.05_hydrogenfluoride--methylfluoride.wfx


