%nprocs=4
%mem=2GB
#p hf aug-cc-pvdz output=wfx scf=(conver=6) int=(grid=ultrafine)

title

0 1
  H    0.246633062   1.009009125   0.000000000
  F   -0.152661221   1.851828982   0.000000000
  H   -0.524884731  -2.033655208   0.895479757
  H   -1.431590404  -0.775788742   0.000000000
  H   -0.524884731  -2.033655208  -0.895479757
  C   -0.555990530  -1.419397336   0.000000000
  F    0.590025015  -0.600228944   0.000000000

5.31_0.95_hydrogenfluoride--methylfluoride.wfx


