%nprocs=4
%mem=2GB
#p hf aug-cc-pvdz output=wfx scf=(conver=6) int=(grid=ultrafine)

title

0 1
  H    0.246633062   1.009009125   0.000000000
  F   -0.152661221   1.851828982   0.000000000
  H   -0.561031252  -1.864261727   0.895479757
  H   -1.467736925  -0.606395261   0.000000000
  H   -0.561031252  -1.864261727  -0.895479757
  C   -0.592137051  -1.250003855   0.000000000
  F    0.553878494  -0.430835463   0.000000000

5.31_0.85_hydrogenfluoride--methylfluoride.wfx


