%nprocs=4
%mem=2GB
#p hf aug-cc-pvdz output=wfx scf=(conver=6) int=(grid=ultrafine)

title

0 1
  H    0.877639885   0.253766380  -0.699482539
  F    0.421979799   0.851309102  -1.242840685
  P    0.458718093  -1.344722720   2.084420755
  F    1.006605950  -0.141036232   2.965673440
  F    1.341236941  -1.090964577   0.752197922
  H   -0.691485523  -0.655326727   1.594745742

5.32_1.10_hydrogenfluoride--phosphineF2.wfx


