%nprocs=4
%mem=2GB
#p hf aug-cc-pvdz output=wfx scf=(conver=6) int=(grid=ultrafine)

title

0 1
  H    0.146501661   0.397704458  -2.286260823
  F    0.621680349   0.612576639  -3.048278943
  C    0.044303130  -0.055375583   0.338642482
  F   -0.551581222   0.067692944  -0.857616545
  F   -0.449913479  -1.113208261   0.954282484
  F   -0.191757960   1.032420644   1.048356977
  F    1.344133195  -0.203479376   0.156401227

5.33_0.80_hydrogenfluoride--tetraFmethane.wfx


