%nprocs=4
%mem=2GB
#p hf aug-cc-pvdz output=wfx scf=(conver=6) int=(grid=ultrafine)

title

0 1
  H    0.146501661   0.397704458  -2.286260823
  F    0.621680349   0.612576639  -3.048278943
  C   -0.217477951  -0.179129901   0.874384087
  F   -0.813362303  -0.056061374  -0.321874940
  F   -0.711694560  -1.236962579   1.490024089
  F   -0.453539041   0.908666326   1.584098582
  F    1.082352114  -0.327233694   0.692142832

5.33_1.10_hydrogenfluoride--tetraFmethane.wfx


