%nprocs=4
%mem=2GB
#p hf aug-cc-pvdz output=wfx scf=(conver=6) int=(grid=ultrafine)

title

0 1
  H    0.146501661   0.397704458  -2.286260823
  F    0.621680349   0.612576639  -3.048278943
  C   -0.042957231  -0.096627023   0.517223017
  F   -0.638841583   0.026441504  -0.679036010
  F   -0.537173840  -1.154459701   1.132863019
  F   -0.279018321   0.991169204   1.226937512
  F    1.256872834  -0.244730816   0.334981762

5.33_0.90_hydrogenfluoride--tetraFmethane.wfx


