%nprocs=4
%mem=2GB
#p hf aug-cc-pvdz output=wfx scf=(conver=6) int=(grid=ultrafine)

title

0 1
  H   -0.176353781  -0.044371204   0.055481540
 Cl    0.093460166  -0.038977817  -1.202312446
  H    0.607289528   0.321406028   2.967170766
  F   -0.199829056   0.084105738   2.585502408

5.34_1.25_hydrogenchloride--hydrogenfluoride.wfx


