%nprocs=4
%mem=2GB
#p hf aug-cc-pvdz output=wfx scf=(conver=6) int=(grid=ultrafine)

title

0 1
  H   -0.176353781  -0.044371204   0.055481540
 Cl    0.093460166  -0.038977817  -1.202312446
  H    0.611045572   0.300849717   2.562367427
  F   -0.196073012   0.063549428   2.180699069

5.34_1.05_hydrogenchloride--hydrogenfluoride.wfx


