%nprocs=4
%mem=2GB
#p hf aug-cc-pvdz output=wfx scf=(conver=6) int=(grid=ultrafine)

title

0 1
  H   -0.176353781  -0.044371204   0.055481540
 Cl    0.093460166  -0.038977817  -1.202312446
  H    0.602594473   0.347101416   3.473174939
  F   -0.204524111   0.109801127   3.091506581

5.34_1.50_hydrogenchloride--hydrogenfluoride.wfx


