%nprocs=4
%mem=2GB
#p hf aug-cc-pvdz output=wfx scf=(conver=6) int=(grid=ultrafine)

title

0 1
  H    0.429587998  -0.486560541   0.000000000
 Cl   -0.066167684  -1.677249578   0.000000000
  H   -0.614511074   3.187283536   0.894772468
  H   -0.614511074   3.187283536  -0.894772468
  H   -1.346990042   1.822370073   0.000000000
  C   -0.559533562   2.572413606   0.000000000
  F    0.678065770   1.912621590   0.000000000

5.35_1.25_hydrogenchloride--methylfluoride.wfx


