%nprocs=4
%mem=2GB
#p hf aug-cc-pvdz output=wfx scf=(conver=6) int=(grid=ultrafine)

title

0 1
  H    0.429587998  -0.486560541   0.000000000
 Cl   -0.066167684  -1.677249578   0.000000000
  H   -0.684084850   2.515512540   0.894772468
  H   -0.684084850   2.515512540  -0.894772468
  H   -1.416563819   1.150599076   0.000000000
  C   -0.629107338   1.900642610   0.000000000
  F    0.608491994   1.240850594   0.000000000

5.35_0.90_hydrogenchloride--methylfluoride.wfx


