%nprocs=4
%mem=2GB
#p hf aug-cc-pvdz output=wfx scf=(conver=6) int=(grid=ultrafine)

title

0 1
  H    0.429587998  -0.486560541   0.000000000
 Cl   -0.066167684  -1.677249578   0.000000000
  H   -0.694023961   2.419545254   0.894772468
  H   -0.694023961   2.419545254  -0.894772468
  H   -1.426502930   1.054631791   0.000000000
  C   -0.639046449   1.804675324   0.000000000
  F    0.598552883   1.144883308   0.000000000

5.35_0.85_hydrogenchloride--methylfluoride.wfx


