%nprocs=4
%mem=2GB
#p hf aug-cc-pvdz output=wfx scf=(conver=6) int=(grid=ultrafine)

title

0 1
  H    0.899741532   1.996983088   0.000000000
 Cl   -0.020205803   2.887946808   0.000000000
  C    0.204614000  -3.620094645   0.000000000
  F    1.325139878  -2.897289310   0.000000000
  F   -0.499396711  -3.332933068  -1.082147125
  F   -0.499396711  -3.332933068   1.082147125
  F    0.519018926  -4.906061400   0.000000000

5.36_2.00_hydrogenchloride--tetraFmethane.wfx


