%nprocs=4
%mem=2GB
#p hf aug-cc-pvdz output=wfx scf=(conver=6) int=(grid=ultrafine)

title

0 1
  H    0.899741532   1.996983088   0.000000000
 Cl   -0.020205803   2.887946808   0.000000000
  C   -0.029355090  -0.928244826   0.000000000
  F    1.091170788  -0.205439491   0.000000000
  F   -0.733365801  -0.641083249  -1.082147125
  F   -0.733365801  -0.641083249   1.082147125
  F    0.285049836  -2.214211581   0.000000000

5.36_0.90_hydrogenchloride--tetraFmethane.wfx


