%nprocs=4
%mem=2GB
#p hf aug-cc-pvdz output=wfx scf=(conver=6) int=(grid=ultrafine)

title

0 1
  H   -0.262410292  -0.031032367   0.675994838
 Br    0.055754988  -0.019611785  -0.716815364
  H    0.576057707   0.284188540   3.241187804
  F   -0.247493529   0.073266998   2.880351730

5.37_1.05_hydrogenbromide--hydrogenfluoride.wfx


