%nprocs=4
%mem=2GB
#p hf aug-cc-pvdz output=wfx scf=(conver=6) int=(grid=ultrafine)

title

0 1
  H   -0.262410292  -0.031032367   0.675994838
 Br    0.055754988  -0.019611785  -0.716815364
  H    0.573926741   0.269288631   2.926279676
  F   -0.249624495   0.058367089   2.565443602

5.37_0.90_hydrogenbromide--hydrogenfluoride.wfx


