%nprocs=4
%mem=2GB
#p hf aug-cc-pvdz output=wfx scf=(conver=6) int=(grid=ultrafine)

title

0 1
  H   -0.262410292  -0.031032367   0.675994838
 Br    0.055754988  -0.019611785  -0.716815364
  H    0.572506097   0.259355358   2.716340925
  F   -0.251045139   0.048433816   2.355504851

5.37_0.80_hydrogenbromide--hydrogenfluoride.wfx


