%nprocs=4
%mem=2GB
#p hf aug-cc-pvdz output=wfx scf=(conver=6) int=(grid=ultrafine)

title

0 1
  H   -0.499627856   0.249626143   0.118499305
 Br    0.273074964  -0.060187914  -1.046367715
  H    0.270543178   0.600721972   3.464133741
  H   -0.550572119  -0.984190686   3.341096048
  H    0.744037506  -0.555157647   2.184178711
  C   -0.077513194  -0.176408585   2.788081268
  F   -1.033199424   0.385213371   1.931482081

5.38_0.95_hydrogenbromide--methylfluoride.wfx


