%nprocs=4
%mem=2GB
#p hf aug-cc-pvdz output=wfx scf=(conver=6) int=(grid=ultrafine)

title

0 1
  H    0.056611427  -0.063269451  -0.898869585
  I    0.180449043  -0.243966834  -2.497001253
  F   -0.207266047   0.178440927   1.112629178
  F    0.855123793  -0.625302494   1.531898955

5.39_0.80_hydrogeniodide--F2.wfx


