%nprocs=4
%mem=2GB
#p hf aug-cc-pvdz output=wfx scf=(conver=6) int=(grid=ultrafine)

title

0 1
  H    0.056611427  -0.063269451  -0.898869585
  I    0.180449043  -0.243966834  -2.497001253
  F   -0.240250732   0.208654724   1.364066524
  F    0.822139108  -0.595088697   1.783336301

5.39_0.90_hydrogeniodide--F2.wfx


