%nprocs=4
%mem=2GB
#p hf aug-cc-pvdz output=wfx scf=(conver=6) int=(grid=ultrafine)

title

0 1
  H    0.056611427  -0.063269451  -0.898869585
  I    0.180449043  -0.243966834  -2.497001253
  F   -0.223758390   0.193547825   1.238347851
  F    0.838631450  -0.610195596   1.657617628

5.39_0.85_hydrogeniodide--F2.wfx


