%nprocs=4
%mem=2GB
#p hf aug-cc-pvdz output=wfx scf=(conver=6) int=(grid=ultrafine)

title

0 1
  H   -0.201340452  -0.015288357  -0.867920736
  I    0.292571396  -0.069479531  -2.405652362
  H    0.824086446   0.194156707   1.152775018
  F   -0.067793997   0.102147331   0.933334314

5.40_0.80_hydrogeniodide--hydrogenfluoride.wfx


