%nprocs=4
%mem=2GB
#p hf aug-cc-pvdz output=wfx scf=(conver=6) int=(grid=ultrafine)

title

0 1
  C    0.479911713  -2.111934053   0.000000000
  H    1.047301428  -1.212360231   0.000000000
  C   -0.175906264  -3.112159341   0.000000000
  H   -0.750117368  -4.004711377   0.000000000
  H   -1.673341569   1.173820069  -0.891927815
  H   -1.270800469  -0.318950772   0.000000000
  H   -1.673341569   1.173820069   0.891927815
  C   -1.214398090   0.763642353   0.000000000
 Cl    0.520592673   1.233959899   0.000000000

6.01_0.90_ethyne--methylchloride.wfx


