%nprocs=4
%mem=2GB
#p hf aug-cc-pvdz output=wfx scf=(conver=6) int=(grid=ultrafine)

title

0 1
  C    3.296630503   0.168006106   1.066843474
  H    2.335366386   0.092522766   1.510623090
  C    4.377290892   0.253169626   0.562675947
  H    5.336195375   0.328775420   0.114573759
  P   -2.240517768  -0.043281966  -0.091818796
 Cl   -1.941379252  -0.078677374   1.964476490
 Cl   -1.115532064   1.607859138  -0.606573070
 Cl   -0.982133898  -1.569434000  -0.679834288

6.02_1.50_ethyne--PCl3.wfx


