%nprocs=4
%mem=2GB
#p hf aug-cc-pvdz output=wfx scf=(conver=6) int=(grid=ultrafine)

title

0 1
  C    3.296630503   0.168006106   1.066843474
  H    2.335366386   0.092522766   1.510623090
  C    4.377290892   0.253169626   0.562675947
  H    5.336195375   0.328775420   0.114573759
  P   -0.672377700   0.019491418  -0.258231710
 Cl   -0.373239185  -0.015903990   1.798063576
 Cl    0.452608004   1.670632523  -0.772985984
 Cl    0.586006169  -1.506660615  -0.846247202

6.02_0.95_ethyne--PCl3.wfx


