%nprocs=4
%mem=2GB
#p hf aug-cc-pvdz output=wfx scf=(conver=6) int=(grid=ultrafine)

title

0 1
  C    2.781418243  -0.608550324  -0.534769490
  H    2.005196997  -1.321134149  -0.666124262
  C    3.650641240   0.199478900  -0.390357533
  H    4.421813727   0.916509176  -0.259273507
 Cl   -0.170238659  -1.413370151  -1.409206889
  S   -0.142109065   0.605534444  -0.830800563
  S   -0.825750154   0.739841692   0.985210774
 Cl    0.744901037   0.423614154   2.323410971

6.03_0.80_ethyne--S2Cl2.wfx


