%nprocs=4
%mem=2GB
#p hf aug-cc-pvdz output=wfx scf=(conver=6) int=(grid=ultrafine)

title

0 1
  H    1.924557445   1.824721014   1.195727900
  H    2.429575047   2.290185819  -0.451111380
  H    0.800032558   1.611937794  -0.173582063
  C    1.837573615   1.601126542   0.139174688
 Cl    2.481020124  -0.057054692  -0.133704508

6.04_mon2_Nmethylacetamide--methylchloride.wfx


