%nprocs=4
%mem=2GB
#p hf aug-cc-pvdz output=wfx scf=(conver=6) int=(grid=ultrafine)

title

0 1
  H    1.403916073   3.206134953  -0.892429753
  H    1.403916073   3.206134953   0.892429753
  H    1.750239784   1.699424879   0.000000000
  C    1.193170398   2.629074631   0.000000000
 Cl   -0.561838686   2.228436103   0.000000000

6.07_mon2_aceticacid--methylchloride.wfx


