%nprocs=4
%mem=2GB
#p hf aug-cc-pvdz output=wfx scf=(conver=6) int=(grid=ultrafine)

title

0 1
  C    3.345318533  -0.477864024   0.226244029
  O    3.075291494  -0.477504808   1.398749772
  O    2.423754936  -0.250489768  -0.736249410
  H    1.572310567  -0.102646735  -0.297643536
  C    4.706409732  -0.722924315  -0.359546503
  H    5.421707255  -0.892699648   0.437197577
  H    4.671973726  -1.586976573  -1.021798735
  H    5.009898492   0.133580003  -0.959898544
  P   -3.847415867   0.932202234   1.918666538
 Cl   -2.219523461   0.362917969   3.066965068
 Cl   -2.881687564   1.445590356   0.159947896
 Cl   -4.616944932  -0.914046439   1.406446866

6.08_2.00_aceticacid--PCl3.wfx


