%nprocs=4
%mem=2GB
#p hf aug-cc-pvdz output=wfx scf=(conver=6) int=(grid=ultrafine)

title

0 1
  H    0.416661946   0.240885075   2.594346669
  H    1.857868305   0.140257692   1.547763510
  H    0.430564555   1.080672247   1.015622020
  C    0.777368464   0.218090670   1.572889980
 Cl    0.098419994  -1.249993463   0.779326251

6.10_mon2_methanol--methylchloride.wfx


