%nprocs=4
%mem=2GB
#p hf aug-cc-pvdz output=wfx scf=(conver=6) int=(grid=ultrafine)

title

0 1
  O   -1.656641508   1.873570781  -1.792895933
  H   -1.206915583   1.844990107  -0.945419952
  C   -1.726449657   0.553383824  -2.310382491
  H   -2.265366327   0.611005944  -3.253136248
  H   -0.734695681   0.135270441  -2.501405712
  H   -2.266988365  -0.121412047  -1.641332007
  P    0.836057695  -0.503534220   1.172121442
 Cl   -1.006814882   0.375455445   1.542120626
 Cl    0.264636312  -2.103728814  -0.000301423
 Cl    1.575456069   0.784300333  -0.266427875

6.11_1.05_methanol--PCl3.wfx


