%nprocs=4
%mem=2GB
#p hf aug-cc-pvdz output=wfx scf=(conver=6) int=(grid=ultrafine)

title

0 1
  O   -0.179065184  -3.016945644   0.000000000
  H    0.042387182  -2.470831377   0.758723103
  H    0.042387182  -2.470831377  -0.758723103
  P    0.332983907   1.783203282   0.000000000
 Cl   -1.599314485   1.074573732   0.000000000
 Cl    1.130860790   0.721538934   1.594095765
 Cl    1.130860790   0.721538934  -1.594095765

6.13_1.25_water--PCl3.wfx


