%nprocs=4
%mem=2GB
#p hf aug-cc-pvdz output=wfx scf=(conver=6) int=(grid=ultrafine)

title

0 1
  O   -0.179065184  -3.016945644   0.000000000
  H    0.042387182  -2.470831377   0.758723103
  H    0.042387182  -2.470831377  -0.758723103
  P    0.558908352   2.445814193   0.000000000
 Cl   -1.373390040   1.737184643   0.000000000
 Cl    1.356785235   1.384149845   1.594095765
 Cl    1.356785235   1.384149845  -1.594095765

6.13_1.50_water--PCl3.wfx


