%nprocs=4
%mem=2GB
#p hf aug-cc-pvdz output=wfx scf=(conver=6) int=(grid=ultrafine)

title

0 1
  H    1.134943156   0.464255462  -0.467961851
  H    2.134375891   1.451346819   0.870753575
  S    1.441289529   1.751931610  -0.237291113
  H   -1.839726688  -0.612157937   1.691201506
  H   -1.098183022   0.705879013   0.740176251
  H   -2.541005839  -0.144183915   0.119449587
  C   -1.628294755  -0.238876608   0.696000085
 Cl   -0.567243024  -1.430971272  -0.132269410

6.15_0.95_sulfane--methylchloride.wfx


