%nprocs=4
%mem=2GB
#p hf aug-cc-pvdz output=wfx scf=(conver=6) int=(grid=ultrafine)

title

0 1
  H   -0.166740982  -0.172124732  -1.140544944
  F   -0.197387145  -0.132497381  -2.067892576
  H    0.859264507   1.257684686   2.144452504
 Cl    0.219862280   0.151777843   2.261105026

6.16_1.50_hydrogenfluoride--hydrogenchloride.wfx


