%nprocs=4
%mem=2GB
#p hf aug-cc-pvdz output=wfx scf=(conver=6) int=(grid=ultrafine)

title

0 1
  H   -0.166740982  -0.172124732  -1.140544944
  F   -0.197387145  -0.132497381  -2.067892576
  H    0.691736427   1.117326904   0.670404183
 Cl    0.052334200   0.011420060   0.787056706

6.16_0.85_hydrogenfluoride--hydrogenchloride.wfx


