%nprocs=4
%mem=2GB
#p hf aug-cc-pvdz output=wfx scf=(conver=6) int=(grid=ultrafine)

title

0 1
  H   -0.315728734  -1.389828455   0.000000000
  F    0.099208777  -2.225581814   0.000000000
  H    1.455712135   1.516673680   0.893333170
  H    1.696081174  -0.011959450   0.000000000
  H    1.455712135   1.516673680  -0.893333170
  C    1.209344604   0.955913335   0.000000000
 Cl   -0.573218757   0.678465775   0.000000000

6.17_0.95_hydrogenfluoride--methylchloride.wfx


