%nprocs=4
%mem=2GB
#p hf aug-cc-pvdz output=wfx scf=(conver=6) int=(grid=ultrafine)

title

0 1
  H   -0.315728734  -1.389828455   0.000000000
  F    0.099208777  -2.225581814   0.000000000
  H    1.496368455   1.190100907   0.893333170
  H    1.736737494  -0.338532223   0.000000000
  H    1.496368455   1.190100907  -0.893333170
  C    1.250000924   0.629340562   0.000000000
 Cl   -0.532562437   0.351893002   0.000000000

6.17_0.80_hydrogenfluoride--methylchloride.wfx


