%nprocs=4
%mem=2GB
#p hf aug-cc-pvdz output=wfx scf=(conver=6) int=(grid=ultrafine)

title

0 1
  H   -0.315728734  -1.389828455   0.000000000
  F    0.099208777  -2.225581814   0.000000000
  H    1.428607923   1.734388862   0.893333170
  H    1.668976962   0.205755732   0.000000000
  H    1.428607923   1.734388862  -0.893333170
  C    1.182240392   1.173628517   0.000000000
 Cl   -0.600322969   0.896180957   0.000000000

6.17_1.05_hydrogenfluoride--methylchloride.wfx


