%nprocs=4
%mem=2GB
#p hf aug-cc-pvdz output=wfx scf=(conver=6) int=(grid=ultrafine)

title

0 1
  H   -0.315728734  -1.389828455   0.000000000
  F    0.099208777  -2.225581814   0.000000000
  H    1.415055816   1.843246453   0.893333170
  H    1.655424855   0.314613323   0.000000000
  H    1.415055816   1.843246453  -0.893333170
  C    1.168688285   1.282486108   0.000000000
 Cl   -0.613875076   1.005038548   0.000000000

6.17_1.10_hydrogenfluoride--methylchloride.wfx


