%nprocs=4
%mem=2GB
#p hf aug-cc-pvdz output=wfx scf=(conver=6) int=(grid=ultrafine)

title

0 1
  H    0.228834519   0.370628924   0.003365949
  F    0.368539278   0.917583230  -0.732497130
  P    0.894780607   0.620100075   2.960644260
 Cl    0.003066404  -0.643650201   1.545388505
 Cl    2.693077044   0.992541636   2.034471695
 Cl   -0.116716027   2.369244600   2.575717440

6.18_0.80_hydrogenfluoride--PCl3.wfx


