%nprocs=4
%mem=2GB
#p hf aug-cc-pvdz output=wfx scf=(conver=6) int=(grid=ultrafine)

title

0 1
  H    0.228834519   0.370628924   0.003365949
  F    0.368539278   0.917583230  -0.732497130
  P    0.852449085   0.429922739   3.249773489
 Cl   -0.039265118  -0.833827537   1.834517734
 Cl    2.650745522   0.802364300   2.323600924
 Cl   -0.159047549   2.179067264   2.864846669

6.18_0.95_hydrogenfluoride--PCl3.wfx


