%nprocs=4
%mem=2GB
#p hf aug-cc-pvdz output=wfx scf=(conver=6) int=(grid=ultrafine)

title

0 1
  H    0.037976592  -0.108553810  -2.459197615
  F    0.828250667  -0.039555693  -2.943394038
 Cl   -1.677573844  -0.116927541  -1.160203554
  S   -0.743670450   1.008416645   0.376372238
  S    0.185948253  -0.218174413   1.562340448
 Cl    2.082113763  -0.579285687   0.795888453

6.19_0.95_hydrogenfluoride--S2Cl2.wfx


