%nprocs=4
%mem=2GB
#p hf aug-cc-pvdz output=wfx scf=(conver=6) int=(grid=ultrafine)

title

0 1
  H    0.037976592  -0.108553810  -2.459197615
  F    0.828250667  -0.039555693  -2.943394038
 Cl   -2.670787254  -0.121775491  -0.408154362
  S   -1.736883860   1.003568695   1.128421430
  S   -0.807265157  -0.223022363   2.314389640
 Cl    1.088900353  -0.584133637   1.547937646

6.19_1.50_hydrogenfluoride--S2Cl2.wfx


