%nprocs=4
%mem=2GB
#p hf aug-cc-pvdz output=wfx scf=(conver=6) int=(grid=ultrafine)

title

0 1
  H   -0.294645010   0.304121680  -1.386697288
 Cl   -0.000897415  -0.055640208  -2.583890276
 Cl   -0.591697447   0.687396357   0.711572210
 Cl    0.705928758  -0.775794549   1.171717876

6.20_0.85_hydrogenchloride--Cl2.wfx


