%nprocs=4
%mem=2GB
#p hf aug-cc-pvdz output=wfx scf=(conver=6) int=(grid=ultrafine)

title

0 1
  H    0.186338801   0.360035766  -0.033235668
 Cl    0.535543709   1.044378509  -1.062251879
  P    0.666651190   0.111938193   3.909072238
 Cl   -0.464094522  -1.137137710   2.678806793
 Cl    2.467626358   0.083373328   2.908439613
 Cl   -0.066598486   1.951842271   3.340216146

6.23_1.25_hydrogenchloride--PCl3.wfx


