%nprocs=4
%mem=2GB
#p hf aug-cc-pvdz output=wfx scf=(conver=6) int=(grid=ultrafine)

title

0 1
  H   -0.410652818   0.210789272  -0.024674537
 Cl   -0.349341613   1.458523799  -0.335536749
 Cl   -0.153996249  -1.632972122   1.186702436
  S    1.050849657  -0.483215261   2.488352407
  S   -0.030258535   0.951710978   3.225872932
 Cl   -0.994495091   0.248319791   4.938958590

6.24_0.90_hydrogenchloride--S2Cl2.wfx


