%nprocs=4
%mem=2GB
#p hf aug-cc-pvdz output=wfx scf=(conver=6) int=(grid=ultrafine)

title

0 1
  H   -0.410652818   0.210789272  -0.024674537
 Cl   -0.349341613   1.458523799  -0.335536749
 Cl    0.159695114  -3.886458270   2.667274291
  S    1.364541020  -2.736701409   3.968924262
  S    0.283432828  -1.301775170   4.706444787
 Cl   -0.680803728  -2.005166357   6.419530445

6.24_2.00_hydrogenchloride--S2Cl2.wfx


