%nprocs=4
%mem=2GB
#p hf aug-cc-pvdz output=wfx scf=(conver=6) int=(grid=ultrafine)

title

0 1
  H   -0.410652818   0.210789272  -0.024674537
 Cl   -0.349341613   1.458523799  -0.335536749
 Cl   -0.054185360  -2.349990442   1.657793480
  S    1.150660546  -1.200233581   2.959443452
  S    0.069552354   0.234692658   3.696963976
 Cl   -0.894684202  -0.468698529   5.410049634

6.24_1.25_hydrogenchloride--S2Cl2.wfx


