%nprocs=4
%mem=2GB
#p hf aug-cc-pvdz output=wfx scf=(conver=6) int=(grid=ultrafine)

title

0 1
  H   -0.410652818   0.210789272  -0.024674537
 Cl   -0.349341613   1.458523799  -0.335536749
 Cl   -0.168254947  -1.530540933   1.119403715
  S    1.036590959  -0.380784072   2.421053686
  S   -0.044517233   1.054142167   3.158574211
 Cl   -1.008753789   0.350750980   4.871659869

6.24_0.85_hydrogenchloride--S2Cl2.wfx


