%nprocs=4
%mem=2GB
#p hf aug-cc-pvdz output=wfx scf=(conver=6) int=(grid=ultrafine)

title

0 1
  H   -0.410652818   0.210789272  -0.024674537
 Cl   -0.349341613   1.458523799  -0.335536749
 Cl   -0.139737550  -1.735403310   1.254001156
  S    1.065108356  -0.585646449   2.555651127
  S   -0.015999836   0.849279790   3.293171652
 Cl   -0.980236392   0.145888603   5.006257310

6.24_0.95_hydrogenchloride--S2Cl2.wfx


