%nprocs=4
%mem=2GB
#p hf aug-cc-pvdz output=wfx scf=(conver=6) int=(grid=ultrafine)

title

0 1
  H   -0.206302610   0.021839009   0.188682247
 Br   -0.088763291  -0.089821309  -1.231551412
  H    1.467617096   0.154569547   2.758466700
 Cl    0.202175285   0.215763760   2.952992265

6.25_1.10_hydrogenbromide--hydrogenchloride.wfx


