%nprocs=4
%mem=2GB
#p hf aug-cc-pvdz output=wfx scf=(conver=6) int=(grid=ultrafine)

title

0 1
  H   -0.206302610   0.021839009   0.188682247
 Br   -0.088763291  -0.089821309  -1.231551412
  H    1.356214034   0.101680978   2.004563968
 Cl    0.090772223   0.162875191   2.199089533

6.25_0.80_hydrogenbromide--hydrogenchloride.wfx


