%nprocs=4
%mem=2GB
#p hf aug-cc-pvdz output=wfx scf=(conver=6) int=(grid=ultrafine)

title

0 1
  H   -0.519803633  -0.110834186   0.000000000
 Br    0.006830518  -1.446762766   0.000000000
  H    1.558895322   2.612457106  -0.892805366
  H    1.558895322   2.612457106   0.892805366
  H    1.609406395   1.067320162   0.000000000
  C    1.241750186   2.087105739   0.000000000
 Cl   -0.556903909   2.030557811   0.000000000

6.26_0.90_hydrogenbromide--methylchloride.wfx


