%nprocs=4
%mem=2GB
#p hf aug-cc-pvdz output=wfx scf=(conver=6) int=(grid=ultrafine)

title

0 1
  H   -0.519803633  -0.110834186   0.000000000
 Br    0.006830518  -1.446762766   0.000000000
  H    1.563017575   2.374524662  -0.892805366
  H    1.563017575   2.374524662   0.892805366
  H    1.613528648   0.829387718   0.000000000
  C    1.245872439   1.849173295   0.000000000
 Cl   -0.552781656   1.792625367   0.000000000

6.26_0.80_hydrogenbromide--methylchloride.wfx


