%nprocs=4
%mem=2GB
#p hf aug-cc-pvdz output=wfx scf=(conver=6) int=(grid=ultrafine)

title

0 1
  H   -0.519803633  -0.110834186   0.000000000
 Br    0.006830518  -1.446762766   0.000000000
  H    1.550650816   3.088321994  -0.892805366
  H    1.550650816   3.088321994   0.892805366
  H    1.601161889   1.543185050   0.000000000
  C    1.233505680   2.562970627   0.000000000
 Cl   -0.565148415   2.506422699   0.000000000

6.26_1.10_hydrogenbromide--methylchloride.wfx


