%nprocs=4
%mem=2GB
#p hf aug-cc-pvdz output=wfx scf=(conver=6) int=(grid=ultrafine)

title

0 1
  H   -0.519803633  -0.110834186   0.000000000
 Br    0.006830518  -1.446762766   0.000000000
  H    1.560956448   2.493490884  -0.892805366
  H    1.560956448   2.493490884   0.892805366
  H    1.611467521   0.948353940   0.000000000
  C    1.243811312   1.968139517   0.000000000
 Cl   -0.554842783   1.911591589   0.000000000

6.26_0.85_hydrogenbromide--methylchloride.wfx


