%nprocs=4
%mem=2GB
#p hf aug-cc-pvdz output=wfx scf=(conver=6) int=(grid=ultrafine)

title

0 1
  H    0.201908319   0.238908418  -0.034579667
 Br    0.424126629   1.040088567  -1.193997794
  P    0.862954501   0.474552841   3.366492412
 Cl   -0.056951305  -1.001548181   2.219130839
 Cl    2.614837536   0.727562103   2.309692167
 Cl   -0.201061969   2.132605389   2.759075318

6.27_1.00_hydrogenbromide--PCl3.wfx


