%nprocs=4
%mem=2GB
#p hf aug-cc-pvdz output=wfx scf=(conver=6) int=(grid=ultrafine)

title

0 1
  H    0.201908319   0.238908418  -0.034579667
 Br    0.424126629   1.040088567  -1.193997794
  P    0.901783445   0.660621331   3.028435836
 Cl   -0.018122361  -0.815479691   1.881074263
 Cl    2.653666480   0.913630593   1.971635591
 Cl   -0.162233025   2.318673879   2.421018742

6.27_0.85_hydrogenbromide--PCl3.wfx


