%nprocs=4
%mem=2GB
#p hf aug-cc-pvdz output=wfx scf=(conver=6) int=(grid=ultrafine)

title

0 1
 Cl    0.806463210   1.894099954   1.745946945
  S   -0.048947688   1.317902595   3.589328420
  S   -1.110846416  -0.286929464   3.321819618
 Cl    0.131860249  -1.950259841   3.490791852

6.28_mon2_hydrogenbromide--S2Cl2.wfx


