%nprocs=4
%mem=2GB
#p hf aug-cc-pvdz output=wfx scf=(conver=6) int=(grid=ultrafine)

title

0 1
  H   -0.121256969   0.081730430  -0.701405515
  I    0.507580931  -0.524354363  -2.059356758
 Cl   -0.423650105   0.465988706   1.693160949
 Cl    1.057725689  -0.868765106   1.931955216

6.29_0.90_hydrogeniodide--Cl2.wfx


