%nprocs=4
%mem=2GB
#p hf aug-cc-pvdz output=wfx scf=(conver=6) int=(grid=ultrafine)

title

0 1
  H   -0.702521814   0.041860819  -0.493308322
  I   -0.187423614   0.613641067   0.935060773
  H    1.006134284  -1.642077453  -0.636815055
  H    0.437762831  -3.124550165  -1.451582878
  H    1.511033149  -1.987893384  -2.313217329
  C    0.716733883  -2.085861614  -1.582858237
 Cl   -0.719259372  -1.197929798  -2.200288812

6.30_0.85_hydrogeniodide--methylchloride.wfx


