%nprocs=4
%mem=2GB
#p hf aug-cc-pvdz output=wfx scf=(conver=6) int=(grid=ultrafine)

title

0 1
  H    0.996301487   0.764677659  -0.139294810
  I   -0.079872838   0.620024382  -1.333149446
  P    0.924933706   0.550028687   3.492291348
 Cl    0.202229152  -1.175943867   2.622735361
 Cl    2.536627668   0.955583760   2.242969945
 Cl   -0.441010002   1.934161587   2.802725593

6.31_1.05_hydrogeniodide--PCl3.wfx


