%nprocs=4
%mem=2GB
#p hf aug-cc-pvdz output=wfx scf=(conver=6) int=(grid=ultrafine)

title

0 1
  H    0.996301487   0.764677659  -0.139294810
  I   -0.079872838   0.620024382  -1.333149446
  P    0.631538243   0.513665620   3.038526633
 Cl   -0.091166311  -1.212306934   2.168970646
 Cl    2.243232205   0.919220693   1.789205230
 Cl   -0.734405465   1.897798520   2.348960878

6.31_0.85_hydrogeniodide--PCl3.wfx


