%nprocs=4
%mem=2GB
#p hf aug-cc-pvdz output=wfx scf=(conver=6) int=(grid=ultrafine)

title

0 1
  H    0.315231372   0.228341787  -0.485548812
  I   -0.037111902  -0.908289732  -1.577376645
 Cl    0.531406998   1.952384899   1.355559269
  S   -0.238536662   0.867921654   2.988623395
  S   -0.906427306  -0.844345910   2.354759451
 Cl    0.670455354  -2.208259261   2.319117260

6.32_0.95_hydrogeniodide--S2Cl2.wfx


