%nprocs=4
%mem=2GB
#p hf aug-cc-pvdz output=wfx scf=(conver=6) int=(grid=ultrafine)

title

0 1
  H    0.315231372   0.228341787  -0.485548812
  I   -0.037111902  -0.908289732  -1.577376645
 Cl    0.497274004   1.680167565   1.064857993
  S   -0.272669656   0.595704320   2.697922119
  S   -0.940560299  -1.116563244   2.064058175
 Cl    0.636322361  -2.480476595   2.028415984

6.32_0.80_hydrogeniodide--S2Cl2.wfx


