%nprocs=4
%mem=2GB
#p hf aug-cc-pvdz output=wfx scf=(conver=6) int=(grid=ultrafine)

title

0 1
 Cl    0.542784662   2.043124010   1.452459694
  S   -0.227158998   0.958660765   3.085523820
  S   -0.895049641  -0.753606799   2.451659876
 Cl    0.681833019  -2.117520150   2.416017685

6.32_mon2_hydrogeniodide--S2Cl2.wfx


