%nprocs=4
%mem=2GB
#p hf aug-cc-pvdz output=wfx scf=(conver=6) int=(grid=ultrafine)

title

0 1
  C    0.120938912  -3.213905144   0.000000000
  O   -0.854262766  -2.493936571   0.000000000
  O    1.375551699  -2.746566060   0.000000000
  H    1.340327249  -1.774999249   0.000000000
  C    0.067804958  -4.711552324   0.000000000
  H   -0.964215052  -5.042573061   0.000000000
  H    0.586145538  -5.094916751  -0.877736564
  H    0.586145538  -5.094916751   0.877736564
 Br   -0.458810806   0.201803422   0.000000000
 Br    0.133337687   2.470897118   0.000000000

7.02_1.05_aceticacid--Br2.wfx


