%nprocs=4
%mem=2GB
#p hf aug-cc-pvdz output=wfx scf=(conver=6) int=(grid=ultrafine)

title

0 1
  C    0.082557266   2.136647838   0.000000000
  O    1.040565629   1.406654543   0.000000000
  O   -1.186916765   1.676592510   0.000000000
  H   -1.148098517   0.706809224   0.000000000
  C    0.129125266   3.637362310   0.000000000
  H    1.160633820   3.970862434   0.000000000
  H   -0.389128368   4.022017120  -0.877310187
  H   -0.389128368   4.022017120   0.877310187
  H   -1.048875533  -2.321107149   0.000000000
 Br   -0.215483555  -1.162420457   0.000000000

7.03_0.80_aceticacid--hydrogenbromide.wfx


