%nprocs=4
%mem=2GB
#p hf aug-cc-pvdz output=wfx scf=(conver=6) int=(grid=ultrafine)

title

0 1
  C   -0.006511951  -2.513439389   0.000000000
  O   -1.109945102  -2.031621773   0.000000000
  O    1.117964036  -1.767567331   0.000000000
  H    0.849063590  -0.831711953   0.000000000
  C    0.302483743  -3.984101864   0.000000000
  H   -0.621231650  -4.551723597   0.000000000
  H    0.896679832  -4.236211993  -0.877324914
  H    0.896679832  -4.236211993   0.877324914
  H    1.334774424   3.325587975  -0.894033628
  H    0.162258062   4.334468608   0.000000000
  H    1.334774424   3.325587975   0.894033628
  C    0.730990136   3.413473670   0.000000000
 Br   -0.553722052   1.934071923   0.000000000

7.04_1.25_aceticacid--methylbromide.wfx


