%nprocs=4
%mem=2GB
#p hf aug-cc-pvdz output=wfx scf=(conver=6) int=(grid=ultrafine)

title

0 1
  H   -1.129501945   1.891483605  -0.703250038
  H   -1.594236626   0.187526745  -1.020650695
  H   -1.986098318   0.949947975   0.553617624
  C   -1.290920289   0.910892263  -0.274806108
 Br    0.433285528   0.301850513   0.444186152

7.06_mon2_water--methylbromide.wfx


