%nprocs=4
%mem=2GB
#p hf aug-cc-pvdz output=wfx scf=(conver=6) int=(grid=ultrafine)

title

0 1
  P    0.644638872  -1.223091347   2.053343625
  F    0.133898085   0.128313107   2.703268011
  F    2.088047328  -0.758228601   1.595282230
  H    0.024242371  -1.014481404   0.792614980
 Br    0.083004314   1.075595417  -0.849224065
 Br   -0.076954673   2.628040730  -2.493924666

7.07_0.95_phosphineF2--Br2.wfx


