%nprocs=4
%mem=2GB
#p hf aug-cc-pvdz output=wfx scf=(conver=6) int=(grid=ultrafine)

title

0 1
  P    0.644638872  -1.223091347   2.053343625
  F    0.133898085   0.128313107   2.703268011
  F    2.088047328  -0.758228601   1.595282230
  H    0.024242371  -1.014481404   0.792614980
 Br    0.092282516   1.405607546  -1.108461809
 Br   -0.067676471   2.958052859  -2.753162410

7.07_1.10_phosphineF2--Br2.wfx


