%nprocs=4
%mem=2GB
#p hf aug-cc-pvdz output=wfx scf=(conver=6) int=(grid=ultrafine)

title

0 1
  H    1.028618147   3.006350474   0.686345587
  H    1.376185339   1.173090011   0.155366235
  S    1.769888972   1.988733910   1.148416968
  H   -0.687379810   0.082905225   1.579106538
  H   -2.324678097  -0.388608918   1.026362034
  H   -1.168870452  -1.641834697   1.564846147
  C   -1.283238129  -0.676752002   1.088435059
 Br   -0.611920751  -0.845726083  -0.745850159

7.08_1.05_sulfane--methylbromide.wfx


