%nprocs=4
%mem=2GB
#p hf aug-cc-pvdz output=wfx scf=(conver=6) int=(grid=ultrafine)

title

0 1
  H    1.028618147   3.006350474   0.686345587
  H    1.376185339   1.173090011   0.155366235
  S    1.769888972   1.988733910   1.148416968
  H   -2.486142462  -1.743642669   0.763720276
  H   -4.123440749  -2.215156812   0.210975772
  H   -2.967633104  -3.468382591   0.749459885
  C   -3.082000781  -2.503299896   0.273048797
 Br   -2.410683403  -2.672273977  -1.561236421

7.08_2.00_sulfane--methylbromide.wfx


