%nprocs=4
%mem=2GB
#p hf aug-cc-pvdz output=wfx scf=(conver=6) int=(grid=ultrafine)

title

0 1
  H    1.028618147   3.006350474   0.686345587
  H    1.376185339   1.173090011   0.155366235
  S    1.769888972   1.988733910   1.148416968
  H   -0.308692935   0.467441624   1.750766803
  H   -1.945991222  -0.004072519   1.198022299
  H   -0.790183577  -1.257298298   1.736506412
  C   -0.904551254  -0.292215603   1.260095324
 Br   -0.233233876  -0.461189684  -0.574189894

7.08_0.85_sulfane--methylbromide.wfx


