%nprocs=4
%mem=2GB
#p hf aug-cc-pvdz output=wfx scf=(conver=6) int=(grid=ultrafine)

title

0 1
  H   -0.211868903  -0.183170600  -1.755870419
  F   -0.260864790  -0.164601284  -2.683303353
  H    0.861707038   1.378635797   1.718131706
 Br    0.190252892   0.130123690   1.870762447

7.09_1.50_hydrogenfluoride--hydrogenbromide.wfx


