%nprocs=4
%mem=2GB
#p hf aug-cc-pvdz output=wfx scf=(conver=6) int=(grid=ultrafine)

title

0 1
  H    0.370908107  -1.769321552   0.000000000
  F    0.054797220  -2.647246487   0.000000000
  H   -2.024362351   1.505686817   0.895318218
  H   -2.024362351   1.505686817  -0.895318218
  H   -1.904367677  -0.040956480   0.000000000
  C   -1.666560470   1.014803102   0.000000000
 Br    0.292944991   1.166605828   0.000000000

7.10_1.25_hydrogenfluoride--methylbromide.wfx


