%nprocs=4
%mem=2GB
#p hf aug-cc-pvdz output=wfx scf=(conver=6) int=(grid=ultrafine)

title

0 1
  H    0.370908107  -1.769321552   0.000000000
  F    0.054797220  -2.647246487   0.000000000
  H   -1.999414154   0.566190055   0.895318218
  H   -1.999414154   0.566190055  -0.895318218
  H   -1.879419480  -0.980453242   0.000000000
  C   -1.641612273   0.075306340   0.000000000
 Br    0.317893188   0.227109066   0.000000000

7.10_0.85_hydrogenfluoride--methylbromide.wfx


