%nprocs=4
%mem=2GB
#p hf aug-cc-pvdz output=wfx scf=(conver=6) int=(grid=ultrafine)

title

0 1
  H   -2.008769728   0.918501341   0.895318218
  H   -2.008769728   0.918501341  -0.895318218
  H   -1.888775054  -0.628141956   0.000000000
  C   -1.650967847   0.427617626   0.000000000
 Br    0.308537614   0.579420352   0.000000000

7.10_mon2_hydrogenfluoride--methylbromide.wfx


