%nprocs=4
%mem=2GB
#p hf aug-cc-pvdz output=wfx scf=(conver=6) int=(grid=ultrafine)

title

0 1
  H    0.131593103  -1.418267892   0.000000000
 Cl   -0.001545089  -2.698740647   0.000000000
  H   -1.463304829   2.427420835   0.000000000
 Br   -0.040357654   2.508601914   0.000000000

7.11_1.50_hydrogenchloride--hydrogenbromide.wfx


