%nprocs=4
%mem=2GB
#p hf aug-cc-pvdz output=wfx scf=(conver=6) int=(grid=ultrafine)

title

0 1
  H   -0.072045994   1.406971908  -0.521508829
 Cl   -0.835595874   2.302565376  -1.058046093
  H   -1.117935575  -2.427174279  -0.438199276
  H   -1.582225845  -1.847429059   1.190219062
  H   -1.688824052  -0.745291410  -0.216167197
  C   -1.160542146  -1.577845430   0.230876555
 Br    0.685689280  -0.994036920   0.549423964

7.12_1.10_hydrogenchloride--methylbromide.wfx


