%nprocs=4
%mem=2GB
#p hf aug-cc-pvdz output=wfx scf=(conver=6) int=(grid=ultrafine)

title

0 1
  H    0.448422173   0.705873360   0.000000000
 Br    0.018048804   2.077839545   0.000000000
  H   -1.823383152  -0.236918022   0.000000000
  H   -2.013097157  -1.775286349  -0.894873069
  H   -2.013097157  -1.775286349   0.894873069
  C   -1.630432019  -1.302374236   0.000000000
 Br    0.316316120  -1.543008197   0.000000000

7.14_0.90_hydrogenbromide--methylbromide.wfx


