%nprocs=4
%mem=2GB
#p hf aug-cc-pvdz output=wfx scf=(conver=6) int=(grid=ultrafine)

title

0 1
  H    0.448422173   0.705873360   0.000000000
 Br    0.018048804   2.077839545   0.000000000
  H   -1.984846105  -2.985551037   0.000000000
  H   -2.174560110  -4.523919364  -0.894873069
  H   -2.174560110  -4.523919364   0.894873069
  C   -1.791894972  -4.051007251   0.000000000
 Br    0.154853167  -4.291641212   0.000000000

7.14_2.00_hydrogenbromide--methylbromide.wfx


