%nprocs=4
%mem=2GB
#p hf aug-cc-pvdz output=wfx scf=(conver=6) int=(grid=ultrafine)

title

0 1
  H   -0.054804993   0.036642779  -0.613597215
  I    0.545944631  -0.621738058  -1.961828405
 Br   -0.560731952   0.716635015   2.170440514
 Br    1.061607176  -0.881855296   2.562842512

7.15_1.05_hydrogeniodide--Br2.wfx


