%nprocs=4
%mem=2GB
#p hf aug-cc-pvdz output=wfx scf=(conver=6) int=(grid=ultrafine)

title

0 1
  O   -1.206218408   0.266111488  -1.409442455
  H   -0.832416332   0.004243198  -0.563723338
  C   -0.166778162   0.801016280  -2.214857012
  H   -0.617938023   1.096378973  -3.159252082
  H    0.293431611   1.682564278  -1.760083854
  H    0.613711570   0.062978256  -2.419450659
  I    1.356632119  -2.546024971  -0.957745946
  I    1.032232149  -0.652948769   0.922991500

8.05_0.85_methanol--I2.wfx


