%nprocs=4
%mem=2GB
#p hf aug-cc-pvdz output=wfx scf=(conver=6) int=(grid=ultrafine)

title

0 1
  O   -0.911617218  -0.140255114  -0.402986320
  H   -0.020341759   0.227103403  -0.409711049
  H   -0.793861892  -1.082373528  -0.261385658
  H   -0.339980431   3.214216435   3.031195815
  H   -0.728831911   4.120247359   1.537185199
  H   -0.954577646   2.340604909   1.586767580
  C   -0.380675822   3.182987674   1.950483759
  I    1.641050293   2.896175299   1.249662519

8.07_1.25_water--methyliodide.wfx


