%nprocs=4
%mem=2GB
#p hf aug-cc-pvdz output=wfx scf=(conver=6) int=(grid=ultrafine)

title

0 1
  O   -0.911617218  -0.140255114  -0.402986320
  H   -0.020341759   0.227103403  -0.409711049
  H   -0.793861892  -1.082373528  -0.261385658
  H    0.193681483   4.912355847   4.234459717
  H   -0.195169997   5.818386771   2.740449101
  H   -0.420915732   4.038744321   2.790031482
  C    0.152986092   4.881127086   3.153747661
  I    2.174712207   4.594314711   2.452926421

8.07_2.00_water--methyliodide.wfx


