%nprocs=4
%mem=2GB
#p hf aug-cc-pvdz output=wfx scf=(conver=6) int=(grid=ultrafine)

title

0 1
  O   -0.911617218  -0.140255114  -0.402986320
  H   -0.020341759   0.227103403  -0.409711049
  H   -0.793861892  -1.082373528  -0.261385658
  H   -0.482290275   2.761379258   2.710325441
  H   -0.871141755   3.667410182   1.216314825
  H   -1.096887490   1.887767732   1.265897206
  C   -0.522985666   2.730150497   1.629613385
  I    1.498740449   2.443338122   0.928792145

8.07_1.05_water--methyliodide.wfx


