%nprocs=4
%mem=2GB
#p hf aug-cc-pvdz output=wfx scf=(conver=6) int=(grid=ultrafine)

title

0 1
  O    0.036762891  -1.498220141  -0.598041272
  H   -0.027235626  -0.569249960  -0.835711623
  H    0.232323283  -1.490423278   0.342840592
  I    0.256223502   2.487852753   0.739700491
  I    0.723150438   0.856325680   2.825919881

8.08_1.10_water--I2.wfx


