%nprocs=4
%mem=2GB
#p hf aug-cc-pvdz output=wfx scf=(conver=6) int=(grid=ultrafine)

title

0 1
  O    0.036762891  -1.498220141  -0.598041272
  H   -0.027235626  -0.569249960  -0.835711623
  H    0.232323283  -1.490423278   0.342840592
  I    0.578064934   4.734028871   2.426661387
  I    1.044991870   3.102501798   4.512880777

8.08_2.00_water--I2.wfx


