%nprocs=4
%mem=2GB
#p hf aug-cc-pvdz output=wfx scf=(conver=6) int=(grid=ultrafine)

title

0 1
  H    0.074202185   0.025904311  -0.630747507
  F    0.250671682  -0.046737067  -1.540202382
  H    1.304192573   0.384542162   1.985761600
  I   -0.279007496   0.218473729   1.716059408

8.10_0.90_hydrogenfluoride--hydrogeniodide.wfx


