%nprocs=4
%mem=2GB
#p hf aug-cc-pvdz output=wfx scf=(conver=6) int=(grid=ultrafine)

title

0 1
  H    0.074202185   0.025904311  -0.630747507
  F    0.250671682  -0.046737067  -1.540202382
  H    1.225701533   0.427335366   2.507274248
  I   -0.357498536   0.261266933   2.237572056

8.10_1.10_hydrogenfluoride--hydrogeniodide.wfx


