%nprocs=4
%mem=2GB
#p hf aug-cc-pvdz output=wfx scf=(conver=6) int=(grid=ultrafine)

title

0 1
  H    0.236199105   0.324530188   1.864902519
 Cl    0.362785833   0.437030904   3.142307159
  H   -0.560480937  -1.623904612  -0.560358740
  I   -0.097391249  -0.110105870  -0.876230966

8.13_1.00_hydrogenchloride--hydrogeniodide.wfx


