%nprocs=4
%mem=2GB
#p hf aug-cc-pvdz output=wfx scf=(conver=6) int=(grid=ultrafine)

title

0 1
  H    0.236199105   0.324530188   1.864902519
 Cl    0.362785833   0.437030904   3.142307159
  H   -0.727276114  -1.841222641  -1.930925482
  I   -0.264186426  -0.327423899  -2.246797708

8.13_1.50_hydrogenchloride--hydrogeniodide.wfx


