%nprocs=4
%mem=2GB
#p hf aug-cc-pvdz output=wfx scf=(conver=6) int=(grid=ultrafine)

title

0 1
  H   -0.027484798   0.006213767  -0.452895749
 Cl    0.385817577  -0.417411525  -1.596387247
  I   -0.738052572   0.792378072   2.864226001
  I    1.245206099  -0.951157996   3.366411905

8.14_1.25_hydrogenchloride--I2.wfx


