%nprocs=4
%mem=2GB
#p hf aug-cc-pvdz output=wfx scf=(conver=6) int=(grid=ultrafine)

title

0 1
  H   -0.027484798   0.006213767  -0.452895749
 Cl    0.385817577  -0.417411525  -1.596387247
  I   -1.164393236   1.264076655   4.854499051
  I    0.818865435  -0.479459413   5.356684955

8.14_2.00_hydrogenchloride--I2.wfx


