%nprocs=4
%mem=2GB
#p hf aug-cc-pvdz output=wfx scf=(conver=6) int=(grid=ultrafine)

title

0 1
  H    0.022520196   0.264049533   0.142466592
 Cl   -0.507757895   1.073089818  -0.717554321
  H   -0.862913602   1.107578284   2.912043140
  H   -1.430200164   0.092203800   4.274204160
  H   -0.010654268   1.163128964   4.486806142
  C   -0.576037171   0.552356052   3.795748437
  I    0.723425565  -1.040676074   3.144746176

8.15_1.25_hydrogenchloride--methyliodide.wfx


