%nprocs=4
%mem=2GB
#p hf aug-cc-pvdz output=wfx scf=(conver=6) int=(grid=ultrafine)

title

0 1
  H    0.022520196   0.264049533   0.142466592
 Cl   -0.507757895   1.073089818  -0.717554321
  H   -1.031130891   1.420712429   2.191496040
  H   -1.598417453   0.405337946   3.553657060
  H   -0.178871557   1.476263110   3.766259042
  C   -0.744254460   0.865490197   3.075201337
  I    0.555208276  -0.727541929   2.424199076

8.15_0.95_hydrogenchloride--methyliodide.wfx


