%nprocs=4
%mem=2GB
#p hf aug-cc-pvdz output=wfx scf=(conver=6) int=(grid=ultrafine)

title

0 1
  H    0.002966274  -0.019471612  -0.479045110
 Br    0.558651635  -0.554914781  -1.684649938
  I   -0.871146706   0.882862454   2.790902221
  I    1.109597022  -0.831985838   3.389677970

8.16_1.25_hydrogenbromide--I2.wfx


