%nprocs=4
%mem=2GB
#p hf aug-cc-pvdz output=wfx scf=(conver=6) int=(grid=ultrafine)

title

0 1
  H    0.002966274  -0.019471612  -0.479045110
 Br    0.558651635  -0.554914781  -1.684649938
  I   -0.731288629   0.738489004   2.267710648
  I    1.249455099  -0.976359288   2.866486397

8.16_1.05_hydrogenbromide--I2.wfx


