%nprocs=4
%mem=2GB
#p hf aug-cc-pvdz output=wfx scf=(conver=6) int=(grid=ultrafine)

title

0 1
  H   -0.014482918   0.230198996   0.135923832
 Br   -0.591513625   1.129521212  -0.829526750
  H   -0.965372592   1.229188524   2.543546266
  H   -1.455001010   0.282513104   3.983341084
  H   -0.011498523   1.339974132   4.055521200
  C   -0.628237514   0.708099444   3.430497856
  I    0.605305466  -0.930738119   2.767405108

8.17_1.10_hydrogenbromide--methyliodide.wfx


