%nprocs=4
%mem=2GB
#p hf aug-cc-pvdz output=wfx scf=(conver=6) int=(grid=ultrafine)

title

0 1
  H   -0.014482918   0.230198996   0.135923832
 Br   -0.591513625   1.129521212  -0.829526750
  H   -0.993544792   1.281958393   2.423933480
  H   -1.483173209   0.335282973   3.863728299
  H   -0.039670723   1.392744001   3.935908414
  C   -0.656409713   0.760869313   3.310885070
  I    0.577133266  -0.877968250   2.647792322

8.17_1.05_hydrogenbromide--methyliodide.wfx


