%nprocs=4
%mem=2GB
#p hf aug-cc-pvdz output=wfx scf=(conver=6) int=(grid=ultrafine)

title

0 1
  H   -0.014482918   0.230198996   0.135923832
 Br   -0.591513625   1.129521212  -0.829526750
  H   -1.106233589   1.493037869   1.945482339
  H   -1.595862006   0.546362449   3.385277158
  H   -0.152359520   1.603823477   3.457457273
  C   -0.769098510   0.971948789   2.832433929
  I    0.464444469  -0.666888774   2.169341181

8.17_0.85_hydrogenbromide--methyliodide.wfx


