%nprocs=4
%mem=2GB
#p hf aug-cc-pvdz output=wfx scf=(conver=6) int=(grid=ultrafine)

title

0 1
  H   -0.026480969   0.005839846  -0.515636747
  I    0.650626611  -0.660179342  -1.827083976
  I   -0.615130200   0.650482918   1.767438547
  I    1.348456527  -1.108107910   2.287097107

8.18_0.85_hydrogeniodide--I2.wfx


