%nprocs=4
%mem=2GB
#p hf aug-cc-pvdz output=wfx scf=(conver=6) int=(grid=ultrafine)

title

0 1
  H   -0.026480969   0.005839846  -0.515636747
  I    0.650626611  -0.660179342  -1.827083976
  I   -1.065273730   1.143445267   3.513319654
  I    0.898312998  -0.615145561   4.032978214

8.18_1.50_hydrogeniodide--I2.wfx


