%nprocs=4
%mem=2GB
#p hf aug-cc-pvdz output=wfx scf=(conver=6) int=(grid=ultrafine)

title

0 1
  H   -0.507870575   0.917833145  -0.360493599
  I   -1.171783424   2.175692016   0.433163743
  H    4.435284230  -2.650774424   0.716986374
  H    2.799178274  -2.017478134   1.076332714
  H    3.181747074  -3.738970813   1.388148073
  C    3.378497326  -2.877351062   0.764233442
  I    2.742646909  -3.376577571  -1.232757665

8.19_2.00_hydrogeniodide--methyliodide.wfx


