%nprocs=4
%mem=2GB
#p hf aug-cc-pvdz output=wfx scf=(conver=6) int=(grid=ultrafine)

title

0 1
  H   -0.507870575   0.917833145  -0.360493599
  I   -1.171783424   2.175692016   0.433163743
  H    2.810025488  -0.503569066   1.153118407
  H    1.173919532   0.129727224   1.512464747
  H    1.556488332  -1.591765455   1.824280106
  C    1.753238584  -0.730145704   1.200365475
  I    1.117388167  -1.229372213  -0.796625632

8.19_1.00_hydrogeniodide--methyliodide.wfx


