%nprocs=4
%mem=2GB
#p hf aug-cc-pvdz output=wfx scf=(conver=6) int=(grid=ultrafine)

title

0 1
  H   -0.507870575   0.917833145  -0.360493599
  I   -1.171783424   2.175692016   0.433163743
  H    2.647499614  -0.288848530   1.196731610
  H    1.011393658   0.344447760   1.556077950
  H    1.393962458  -1.377044919   1.867893309
  C    1.590712710  -0.515425168   1.243978678
  I    0.954862293  -1.014651677  -0.753012429

8.19_0.90_hydrogeniodide--methyliodide.wfx


