%nprocs=4
%mem=2GB
#p hf aug-cc-pvdz output=wfx scf=(conver=6) int=(grid=ultrafine)

title

0 1
  H   -0.507870575   0.917833145  -0.360493599
  I   -1.171783424   2.175692016   0.433163743
  H    3.622654859  -1.577171745   0.935052390
  H    1.986548903  -0.943875455   1.294398730
  H    2.369117703  -2.665368134   1.606214090
  C    2.565867955  -1.803748383   0.982299458
  I    1.930017538  -2.302974892  -1.014691648

8.19_1.50_hydrogeniodide--methyliodide.wfx


