%nprocs=4
%mem=2GB
#p pbepbe aug-cc-pvtz output=wfx scf=(conver=6) int=(grid=ultrafine)
 
title
 
0 1
 N        0.000000000     0.014363940     1.464546280
 H        0.000000000    -0.981048570     1.653447790
 H       -0.813483510     0.398767760     1.929340490
 H        0.813483510     0.398767760     1.929340490

01waterammonia_2.wfx

