%nprocs=4
%mem=2GB
#p pbepbe aug-cc-pvtz output=wfx scf=(conver=6) int=(grid=ultrafine)
 
title
 
0 1
 N       -0.000000000     0.000000000     1.848336590
 H        0.937309790    -0.000000000     2.232067410
 H       -0.468654890    -0.811734090     2.232067410
 H       -0.468654890     0.811734090     2.232067410

07ammoniamethane_1.wfx

