%nprocs=4
%mem=2GB
#p pbepbe aug-cc-pvtz output=wfx scf=(conver=6) int=(grid=ultrafine)
 
title
 
0 1
 C        0.000000000    -0.597970890     1.477428640
 C        0.000000000     0.421311960     2.339578480
 H        0.921133510    -1.029571020     1.106535160
 H       -0.921133510    -1.029571020     1.106535160
 H       -0.923938150     0.851248260     2.706946330
 H        0.923938150     0.851248260     2.706946330

11formaldehydeethene_1.wfx

