%nprocs=4
%mem=2GB
#p pbepbe aug-cc-pvtz output=wfx scf=(conver=6) int=(grid=ultrafine)
 
title
 
0 1
 C       -0.000000000     0.000000000     1.578295130
 H       -0.000000000     0.000000000     0.511361930
 C       -0.000000000     0.000000000     2.785765430
 H       -0.000000000     0.000000000     3.850178590

12ethynedimer_2.wfx

