%nprocs=4
%mem=2GB
#p pbepbe aug-cc-pvtz output=wfx scf=(conver=6) int=(grid=ultrafine)
 
title
 
0 1
 C        0.000000000     0.603564000    -2.181734380
 H        0.000000000     1.668475810    -2.184296100
 C        0.000000000    -0.603564000    -2.181734380
 H        0.000000000    -1.668475810    -2.184296100

12ethynedimer_1.wfx

