%nprocs=4
%mem=2GB
#p pbepbe aug-cc-pvtz output=wfx scf=(conver=6) int=(grid=ultrafine)
 
title
 
0 1
 H        0.924445100    -1.231722210    -1.906193130
 C        0.000000000    -0.667287780    -1.905565200
 H       -0.924445100    -1.231722210    -1.906193130
 C        0.000000000     0.667287780    -1.905565200
 H       -0.924445100     1.231722210    -1.906193130
 H        0.924445100     1.231722210    -1.906193130

14ethenedimer_1.wfx

