%nprocs=4
%mem=2GB
#p pbepbe aug-cc-pvtz output=wfx scf=(conver=6) int=(grid=ultrafine)
 
title
 
0 1
 C       -0.000000000     0.000000000    -2.858104710
 H        0.393047200    -0.947122290    -2.493697390
 H        0.623708370     0.813950000    -2.493697390
 H       -1.016755560     0.133172290    -2.493697390
 H        0.000000000    -0.000000000    -3.946342140

18methaneethane_1.wfx

