%nprocs=4
%mem=2GB
#p pbepbe aug-cc-pvtz output=wfx scf=(conver=6) int=(grid=ultrafine)
 
title
 
0 1
H   -0.923961000   1.231956000  -1.684781230
H    0.923961000   1.231956000  -1.684781230
H    0.923961000  -1.231956000  -1.684781230
H   -0.923961000  -1.231956000  -1.684781230
C    0.000000000   0.667176000  -1.684781230
C    0.000000000  -0.667176000  -1.684781230
H   -0.000000000  -1.667865000   1.815218770
H   -0.000000000   1.667865000   1.815218770
C   -0.000000000  -0.603397000   1.815218770
C   -0.000000000   0.603397000   1.815218770

22etheneethyne.wfx

