%nprocs=4
%mem=2GB
#p pbepbe aug-cc-pvtz output=wfx scf=(conver=6) int=(grid=ultrafine)
 
title
 
0 1
H   -0.923961000   1.231956000  -1.750000000
H    0.923961000   1.231956000  -1.750000000
H    0.923961000  -1.231956000  -1.750000000
H   -0.923961000  -1.231956000  -1.750000000
C    0.000000000   0.667176000  -1.750000000
C   -0.000000000  -0.667176000  -1.750000000
H   -0.923961000   1.231956000   1.750000000
H    0.923961000   1.231956000   1.750000000
H    0.923961000  -1.231956000   1.750000000
H   -0.923961000  -1.231956000   1.750000000
C    0.000000000   0.667176000   1.750000000
C   -0.000000000  -0.667176000   1.750000000

23ethenedimer.wfx

