%nprocs=4
%mem=2GB
#p pbepbe aug-cc-pvtz output=wfx scf=(conver=6) int=(grid=ultrafine)
 
title
 
0 1
H   -0.000000000  -1.667865000  -1.750000000
H    0.000000000   1.667865000  -1.750000000
C   -0.000000000  -0.603397000  -1.750000000
C    0.000000000   0.603397000  -1.750000000
H   -0.000000000  -1.667865000   1.750000000
H    0.000000000   1.667865000   1.750000000
C   -0.000000000  -0.603397000   1.750000000
C    0.000000000   0.603397000   1.750000000

24ethynedimer.wfx

