%nprocs=6
%mem=4GB
#p pbepbe aug-cc-pvtz output=wfx scf=(conver=6) int=(grid=ultrafine)

title

0 1
C	-2.432587 0.707293 1.800000
C	-1.241616 1.403477 1.800000
C	0.000000 0.716360 1.800000
C	0.000000 -0.716360 1.800000
C	-1.241616 -1.403477 1.800000
C	-2.432587 -0.707293 1.800000
H	1.240767 2.492687 1.800000
H	-3.377143 1.246549 1.800000
H	-1.240767 2.492687 1.800000
C	1.241616 1.403477 1.800000
C	1.241616 -1.403477 1.800000
H	-1.240767 -2.492687 1.800000
H	-3.377143 -1.246549 1.800000
C	2.432587 -0.707293 1.800000
C	2.432587 0.707293 1.800000
H	1.240767 -2.492687 1.800000
H	3.377143 -1.246549 1.800000
H	3.377143 1.246549 1.800000

c10h8_c10h8_pc_1.wfx


