%nprocs=6
%mem=4GB
#p pbepbe aug-cc-pvtz output=wfx scf=(conver=6) int=(grid=ultrafine)

title

0 1
C	0.000000 0.665900 -1.163992
H	0.922200 1.231634 -1.163992
H	-0.922200 1.231634 -1.163992
C	0.000000 -0.665900 -1.163992
H	0.922200 -1.231634 -1.163992
H	-0.922200 -1.231634 -1.163992

c2h4_hf_1.wfx


