%nprocs=6
%mem=4GB
#p pbepbe aug-cc-pvtz output=wfx scf=(conver=6) int=(grid=ultrafine)

title

0 1
N	-1.395591 -0.021564 0.000037
H	-1.629811 0.961096 -0.106224
H	-1.862767 -0.512544 -0.755974
H	-1.833547 -0.330770 0.862307
O	1.568501 0.105892 0.000005
H	0.606736 -0.033962 -0.000628
H	1.940519 -0.780005 0.000222

nh3_h2o.wfx


