%nprocs=4
%mem=2GB
#p hf aug-cc-pvdz output=wfx scf=(conver=6) int=(grid=ultrafine)

title

0 1
  P    0.084011746  -2.570366557   0.000000000
  H    0.634622704  -1.263582160   0.000000000
  H    0.930911127  -3.042279034   1.033886520
  H    0.930911127  -3.042279034  -1.033886520
  H    0.501560842   3.172561626   0.000000000
  H    1.672454036   2.173544631   0.882652225
  H    1.672454036   2.173544631  -0.882652225
  H   -0.039805849   1.001071240  -2.080724731
  H   -1.352163318   1.895848363  -1.289433942
  H   -1.293142824   0.125417439  -1.196974911
  H   -1.352163318   1.895848363   1.289433942
  H   -1.293142824   0.125417439   1.196974911
  C    1.035028110   2.207090862   0.000000000
  N    0.134113383   1.070005024   0.000000000
  C   -0.680193694   1.026050667  -1.199849959
  C   -0.680193694   1.026050667   1.199849959
  H   -0.039805849   1.001071240   2.080724731

1.04_0.95_phosphine--trimethylamine.wfx


