%nprocs=4
%mem=2GB
#p hf aug-cc-pvdz output=wfx scf=(conver=6) int=(grid=ultrafine)

title

0 1
  P    0.084011746  -2.570366557   0.000000000
  H    0.634622704  -1.263582160   0.000000000
  H    0.930911127  -3.042279034   1.033886520
  H    0.930911127  -3.042279034  -1.033886520
  H   -0.051633671   5.751789566   0.000000000
  H    1.119259523   4.752772571   0.882652225
  H    1.119259523   4.752772571  -0.882652225
  H   -0.593000362   3.580299180  -2.080724731
  H   -1.905357831   4.475076303  -1.289433942
  H   -1.846337337   2.704645379  -1.196974911
  H   -1.905357831   4.475076303   1.289433942
  H   -1.846337337   2.704645379   1.196974911
  C    0.481833597   4.786318802   0.000000000
  N   -0.419081130   3.649232964   0.000000000
  C   -1.233388207   3.605278607  -1.199849959
  C   -1.233388207   3.605278607   1.199849959
  H   -0.593000362   3.580299180   2.080724731

1.04_2.00_phosphine--trimethylamine.wfx


