%nprocs=4
%mem=2GB
#p hf aug-cc-pvdz output=wfx scf=(conver=6) int=(grid=ultrafine)

title

0 1
  P    0.084011746  -2.570366557   0.000000000
  H    0.634622704  -1.263582160   0.000000000
  H    0.930911127  -3.042279034   1.033886520
  H    0.930911127  -3.042279034  -1.033886520
  H    0.211792288   4.523585785   0.000000000
  H    1.382685482   3.524568790   0.882652225
  H    1.382685482   3.524568790  -0.882652225
  H   -0.329574404   2.352095399  -2.080724731
  H   -1.641931872   3.246872522  -1.289433942
  H   -1.582911378   1.476441598  -1.196974911
  H   -1.641931872   3.246872522   1.289433942
  H   -1.582911378   1.476441598   1.196974911
  C    0.745259556   3.558115021   0.000000000
  N   -0.155655172   2.421029183   0.000000000
  C   -0.969962248   2.377074826  -1.199849959
  C   -0.969962248   2.377074826   1.199849959
  H   -0.329574404   2.352095399   2.080724731

1.04_1.50_phosphine--trimethylamine.wfx


