%nprocs=4
%mem=2GB
#p hf aug-cc-pvdz output=wfx scf=(conver=6) int=(grid=ultrafine)

title

0 1
  N   -1.259463348   2.137717939  -1.049371903
  H   -1.664869547   2.718525359  -0.326370192
  H   -0.569005420   2.695431098  -1.535718029
  H   -1.993549177   1.920217975  -1.711451971

1.05_mon2_methanethiol--ammonia.wfx


