%nprocs=4
%mem=2GB
#p hf aug-cc-pvdz output=wfx scf=(conver=6) int=(grid=ultrafine)

title

0 1
  H    2.010280107  -0.324447455  -0.630241859
  H    2.200430424  -1.331650047   0.808828266
  H    1.838633582   0.387952798   0.992167894
  H   -0.571036159   0.195417835  -0.151614939
  C    1.655656150  -0.493093976   0.382990471
  S   -0.109226185  -0.948575969   0.396375193
  N   -1.603676942   3.108867991  -1.498250385
  H   -2.009083142   3.689675411  -0.775248674
  H   -0.913219014   3.666581150  -1.984596511
  H   -2.337762772   2.891368027  -2.160330453

1.05_1.50_methanethiol--ammonia.wfx


