%nprocs=4
%mem=2GB
#p hf aug-cc-pvdz output=wfx scf=(conver=6) int=(grid=ultrafine)

title

0 1
  H   -1.663596630   3.535628310  -0.443319232
  H   -1.291486560   1.935739327   1.418321442
  C   -1.026891411   2.122773433  -1.942515315
  C   -1.298283752   2.539765440  -0.646941647
  C   -1.090063485   1.644945272   0.394797826
  N   -0.641507502   0.403711695   0.211567566
  C   -0.383206541   0.010960524  -1.035797455
  C   -0.559711713   0.831501674  -2.142460976
  H   -0.020124222  -1.003816972  -1.147165153
  H   -0.335858772   0.463284445  -3.132879021
  H   -1.176690578   2.790654296  -2.779009387

1.07_mon2_methanethiol--pyridine.wfx


