%nprocs=4
%mem=2GB
#p hf aug-cc-pvdz output=wfx scf=(conver=6) int=(grid=ultrafine)

title

0 1
  H   -1.587915175  -1.939285078   0.889921579
  H   -1.218712774  -3.419324543   0.000000000
  H   -1.587915175  -1.939285078  -0.889921579
  H    0.551358815  -0.628721581   0.000000000
  C   -1.108038693  -2.338224205   0.000000000
  S    0.680082860  -1.981329585   0.000000000
  H   -1.106644313   2.621854713   1.304969702
  H   -1.649186404   0.936374565   1.194122284
  H   -0.173630003   1.325285635   2.080108439
  H    1.829281834   1.888227008   0.882692364
  H    1.054579333   3.218740775   0.000000000
  H    1.829281834   1.888227008  -0.882692364
  H   -1.106644313   2.621854713  -1.304969702
  H   -0.173630003   1.325285635  -2.080108439
  C   -0.769458842   1.578244949   1.204540608
  N    0.011667343   1.358628922   0.000000000
  C    1.240370151   2.133191133   0.000000000
  C   -0.769458842   1.578244949  -1.204540608
  H   -1.649186404   0.936374565  -1.194122284

1.08_1.00_methanethiol--trimethylamine.wfx


