%nprocs=4
%mem=2GB
#p hf aug-cc-pvdz output=wfx scf=(conver=6) int=(grid=ultrafine)

title

0 1
  H   -1.587915175  -1.939285078   0.889921579
  H   -1.218712774  -3.419324543   0.000000000
  H   -1.587915175  -1.939285078  -0.889921579
  H    0.551358815  -0.628721581   0.000000000
  C   -1.108038693  -2.338224205   0.000000000
  S    0.680082860  -1.981329585   0.000000000

1.08_mon1_methanethiol--trimethylamine.wfx


