%nprocs=4
%mem=2GB
#p hf aug-cc-pvdz output=wfx scf=(conver=6) int=(grid=ultrafine)

title

0 1
  H    0.008090959  -0.131663345  -0.010791431
  H    1.356736705   1.264750626  -0.257012778
  S    0.051756189   1.221663006   0.047664757
  N   -0.161793606  -2.187713014  -0.069368212
  H    0.359068099  -2.629942932   0.677337456
  H   -1.132220056  -2.454985166   0.037850512
  H    0.165494065  -2.578948538  -0.943581146

1.09_0.95_sulfane--ammonia.wfx


