%nprocs=4
%mem=2GB
#p hf aug-cc-pvdz output=wfx scf=(conver=6) int=(grid=ultrafine)

title

0 1
  H    1.217743030   0.788143311  -0.078965726
  H    1.906226285   2.113299383  -1.325472783
  S    1.841658755   1.977347311   0.007004422
  H   -2.143899553   0.234741879   1.156666980
  H   -2.394741065   0.340855375  -0.603101653
  H   -1.251935205   1.432504775   0.201348690
  C   -1.659909516   0.427771979   0.198382950
  N   -0.523141975  -0.482490105  -0.018861092
  N   -0.784929826  -1.679483238  -0.045238993
  N   -0.909270396  -2.800296217  -0.088034481

1.11_0.95_sulfane--methylazide.wfx


