%nprocs=4
%mem=2GB
#p hf aug-cc-pvdz output=wfx scf=(conver=6) int=(grid=ultrafine)

title

0 1
  H    1.700202605   0.232163252   0.141981808
  H    1.830711941   2.076036912   0.741863884
  S    1.652224685   0.878921467   1.319452482
  H   -2.888805272   0.523138494  -1.606169456
  H   -3.569042692  -0.445256794  -0.267038017
  H   -1.898024784   0.192501834  -0.149285638
  C   -2.670115958  -0.186882286  -0.812891023
  O   -2.217070502  -1.443614208  -1.408539744
  C   -1.112017824  -1.384778346  -2.052871930
  N   -0.113729870  -1.366474772  -2.634227555

1.12_1.50_sulfane--methylcyanate.wfx


