%nprocs=4
%mem=2GB
#p hf aug-cc-pvdz output=wfx scf=(conver=6) int=(grid=ultrafine)

title

0 1
  H    1.700202605   0.232163252   0.141981808
  H    1.830711941   2.076036912   0.741863884
  S    1.652224685   0.878921467   1.319452482
  H   -2.223696698   1.109305769  -0.588226023
  H   -2.903934117   0.140910481   0.750905416
  H   -1.232916210   0.778669110   0.868657795
  C   -2.005007383   0.399284990   0.205052410
  O   -1.551961927  -0.857446933  -0.390596311
  C   -0.446909249  -0.798611070  -1.034928497
  N    0.551378704  -0.780307497  -1.616284122

1.12_0.95_sulfane--methylcyanate.wfx


