%nprocs=4
%mem=2GB
#p hf aug-cc-pvdz output=wfx scf=(conver=6) int=(grid=ultrafine)

title

0 1
  H    0.067192993   0.971773336   0.000000000
  H    1.323045348   2.486783412   0.000000000
  S   -0.009552849   2.340443353   0.000000000
  H    0.615950785  -2.470485363  -1.303193424
  H    0.197396847  -0.929986425  -2.080506414
  H    1.717578096  -1.083523344  -1.197590280
  H    1.717578096  -1.083523344   1.197590280
  H    0.615950785  -2.470485363   1.303193424
  H    0.197396847  -0.929986425   2.080506414
  H   -1.619342693  -2.261418930   0.000000000
  H   -1.871350728  -0.742596565   0.882788905
  C    0.668535703  -1.375437178  -1.205875462
  N    0.016048398  -0.893642511   0.000000000
  C    0.668535703  -1.375437178   1.205875462
  C   -1.408643285  -1.181357445   0.000000000
  H   -1.871350728  -0.742596565  -0.882788905

1.14_0.95_sulfane--trimethylamine.wfx


