%nprocs=4
%mem=2GB
#p hf aug-cc-pvdz output=wfx scf=(conver=6) int=(grid=ultrafine)

title

0 1
  H   -0.172375188  -0.888330607   0.000000000
  F    0.158810900  -1.799313584   0.000000000
  N   -1.134613874   2.228078101   0.000000000
  H   -1.713682368   2.395712577   0.813140199
  H   -1.713682368   2.395712577  -0.813140199
  C    0.039976383   3.114041651   0.000000000
  H    0.644502507   2.898928594   0.878043289
  H    0.644502507   2.898928594  -0.878043289
  H   -0.213304930   4.176191599   0.000000000

1.16_2.00_hydrogenfluoride--methylamine.wfx


