%nprocs=4
%mem=2GB
#p hf aug-cc-pvdz output=wfx scf=(conver=6) int=(grid=ultrafine)

title

0 1
  H    0.328016831   1.546292083   0.000000000
  F    0.577717104   2.456537939   0.000000000
  H   -2.090027038  -0.838510294   0.891263521
  H   -2.090027038  -0.838510294  -0.891263521
  H   -2.230907164   0.686969658   0.000000000
  C   -1.774554921  -0.296175813   0.000000000
  N   -0.316484075  -0.078152081   0.000000000
  N    0.384439733  -1.089184700   0.000000000
  N    1.106750713  -1.951748509   0.000000000

1.17_1.00_hydrogenfluoride--methylazide.wfx


