%nprocs=4
%mem=2GB
#p hf aug-cc-pvdz output=wfx scf=(conver=6) int=(grid=ultrafine)

title

0 1
  H    0.328016831   1.546292083   0.000000000
  F    0.577717104   2.456537939   0.000000000
  H   -1.993351902  -0.594843669   0.891263521
  H   -1.993351902  -0.594843669  -0.891263521
  H   -2.134232028   0.930636283   0.000000000
  C   -1.677879785  -0.052509188   0.000000000
  N   -0.219808939   0.165514544   0.000000000
  N    0.481114869  -0.845518075   0.000000000
  N    1.203425849  -1.708081884   0.000000000

1.17_0.85_hydrogenfluoride--methylazide.wfx


