%nprocs=4
%mem=2GB
#p hf aug-cc-pvdz output=wfx scf=(conver=6) int=(grid=ultrafine)

title

0 1
  H    0.047398582   2.376990287   0.000000000
  F    0.229305667   3.300103958   0.000000000
  H    1.291476347  -2.277234290  -0.895929680
  H    1.291476347  -2.277234290   0.895929680
  H    0.373394484  -3.522895777   0.000000000
  C    0.717844080  -2.496591205   0.000000000
  O   -0.502806562  -1.689690149   0.000000000
  C   -0.335188883  -0.424677278   0.000000000
  N   -0.222942327   0.721210001   0.000000000

1.18_0.95_hydrogenfluoride--methylcyanate.wfx


