%nprocs=4
%mem=2GB
#p hf aug-cc-pvdz output=wfx scf=(conver=6) int=(grid=ultrafine)

title

0 1
  H    0.000000000   2.147274954   1.995384110
  H    0.000000000   2.052423833  -0.491966045
  C    0.000000000   0.000000000   2.191890230
  C    0.000000000   1.195194544   1.486441094
  C    0.000000000   1.147329140   0.100361469
  N    0.000000000   0.000000000  -0.579120243
  C    0.000000000  -1.147329140   0.100361469
  C    0.000000000  -1.195194544   1.486441094
  H    0.000000000  -2.052423833  -0.491966045
  H    0.000000000  -2.147274954   1.995384110
  H    0.000000000   0.000000000   3.272522441

1.20_mon2_hydrogenfluoride--pyridine.wfx


