%nprocs=4
%mem=2GB
#p hf aug-cc-pvdz output=wfx scf=(conver=6) int=(grid=ultrafine)

title

0 1
  N    0.000002744  -2.034483854   0.000000000
  H   -0.473181387  -2.393491906   0.819577485
  H   -0.473181387  -2.393491906  -0.819577485
  H    0.946368920  -2.393493686   0.000000000

1.22_mon2_hydrogenchloride--ammonia.wfx


