%nprocs=4
%mem=2GB
#p hf aug-cc-pvdz output=wfx scf=(conver=6) int=(grid=ultrafine)

title

0 1
  H    0.000000216  -0.312689967   0.000000000
 Cl   -0.000001282   1.030655196   0.000000000
  N    0.000004008  -2.895380798   0.000000000
  H   -0.473180123  -3.254388850   0.819577485
  H   -0.473180123  -3.254388850  -0.819577485
  H    0.946370184  -3.254390630   0.000000000

1.22_1.50_hydrogenchloride--ammonia.wfx


