%nprocs=4
%mem=2GB
#p hf aug-cc-pvdz output=wfx scf=(conver=6) int=(grid=ultrafine)

title

0 1
  H    0.336684409   0.188965689   0.000000000
 Cl   -0.071380756   1.520063651   0.000000000
  N    0.610795728  -1.024281235   0.000000000
  H    1.169210510  -1.236179662   0.817050016
  H    1.169210510  -1.236179662  -0.817050016
  C   -0.656228296  -1.769214721   0.000000000
  H   -1.230095447  -1.483539438  -0.878231722
  H   -0.521941680  -2.851882437   0.000000000
  H   -1.230095447  -1.483539438   0.878231722

1.23_0.80_hydrogenchloride--methylamine.wfx


