%nprocs=4
%mem=2GB
#p hf aug-cc-pvdz output=wfx scf=(conver=6) int=(grid=ultrafine)

title

0 1
  H    0.126682222   1.083119430   0.000000000
 Cl    0.244070020   2.384096055   0.000000000
  H   -2.068357216  -1.713827438   0.891135748
  H   -2.068357216  -1.713827438  -0.891135748
  H   -2.322825780  -0.203340563   0.000000000
  C   -1.793104814  -1.149419524   0.000000000
  N   -0.357641838  -0.822043166   0.000000000
  N    0.423226920  -1.769987765   0.000000000
  N    1.223380044  -2.562721386   0.000000000

1.24_1.05_hydrogenchloride--methylazide.wfx


