%nprocs=4
%mem=2GB
#p hf aug-cc-pvdz output=wfx scf=(conver=6) int=(grid=ultrafine)

title

0 1
  H    0.126682222   1.083119430   0.000000000
 Cl    0.244070020   2.384096055   0.000000000
  H   -2.022231114  -1.532383382   0.891135748
  H   -2.022231114  -1.532383382  -0.891135748
  H   -2.276699678  -0.021896507   0.000000000
  C   -1.746978714  -0.967975468   0.000000000
  N   -0.311515738  -0.640599110   0.000000000
  N    0.469353020  -1.588543709   0.000000000
  N    1.269506144  -2.381277330   0.000000000

1.24_0.95_hydrogenchloride--methylazide.wfx


