%nprocs=4
%mem=2GB
#p hf aug-cc-pvdz output=wfx scf=(conver=6) int=(grid=ultrafine)

title

0 1
  H    0.108442249  -1.774679671   0.000000000
 Cl   -0.147300079  -3.049197596   0.000000000
  H   -1.391436206   2.814015996  -0.895624011
  H   -1.391436206   2.814015996   0.895624011
  H   -0.582611477   4.133051571   0.000000000
  C   -0.837464457   3.080784034   0.000000000
  O    0.445909614   2.381065213   0.000000000
  C    0.383162391   1.104534857   0.000000000
  N    0.365795615  -0.047917690   0.000000000

1.25_0.90_hydrogenchloride--methylcyanate.wfx


