%nprocs=4
%mem=2GB
#p hf aug-cc-pvdz output=wfx scf=(conver=6) int=(grid=ultrafine)

title

0 1
  H    1.028265062   0.532241587  -0.362285786
 Cl    2.047560612   1.348590584  -0.329954463
  C   -0.249632535  -1.049555092   1.909567597
  H   -0.586855590  -0.498181109   2.781333855
  H    0.838389877  -1.047124644   1.870776967
  H   -0.588767328  -2.082051353   2.006615157
  C   -0.869712432  -0.438509405   0.673954901
  O   -1.909432155   0.181508749   0.686363102
  N   -0.142783709  -0.615624576  -0.492068250
  H    0.524125387  -1.371212457  -0.482628262
  C   -0.752005582  -0.303424735  -1.780866993
  H   -1.203449628   0.681804667  -1.724725150
  H    0.021046152  -0.300091946  -2.544547090
  H   -1.528307285  -1.020903873  -2.049067943

1.26_0.85_hydrogenchloride--Nmethylacetamide.wfx


