%nprocs=4
%mem=2GB
#p hf aug-cc-pvdz output=wfx scf=(conver=6) int=(grid=ultrafine)

title

0 1
  H    0.000000000   0.000000000   1.625883667
 Cl    0.000000000   0.000000000   2.993344991
  H    0.000000000  -2.147713952  -2.950170220
  H    0.000000000  -2.051415327  -0.456640067
  C    0.000000000   0.000000000  -3.143971023
  C    0.000000000  -1.196403290  -2.439854792
  C    0.000000000  -1.149313355  -1.053922065
  N    0.000000000   0.000000000  -0.380925344
  C    0.000000000   1.149313355  -1.053922065
  C    0.000000000   1.196403290  -2.439854792
  H    0.000000000   2.051415327  -0.456640067
  H    0.000000000   2.147713952  -2.950170220
  H    0.000000000   0.000000000  -4.224548541

1.27_1.25_hydrogenchloride--pyridine.wfx


