%nprocs=4
%mem=2GB
#p hf aug-cc-pvdz output=wfx scf=(conver=6) int=(grid=ultrafine)

title

0 1
  H    0.000000000   0.000000000   1.625883667
 Cl    0.000000000   0.000000000   2.993344991
  H    0.000000000  -2.147713952  -2.307991337
  H    0.000000000  -2.051415327   0.185538816
  C    0.000000000   0.000000000  -2.501792140
  C    0.000000000  -1.196403290  -1.797675909
  C    0.000000000  -1.149313355  -0.411743182
  N    0.000000000   0.000000000   0.261253539
  C   -0.000000000   1.149313355  -0.411743182
  C   -0.000000000   1.196403290  -1.797675909
  H   -0.000000000   2.051415327   0.185538816
  H   -0.000000000   2.147713952  -2.307991337
  H    0.000000000   0.000000000  -3.582369658

1.27_0.85_hydrogenchloride--pyridine.wfx


