%nprocs=4
%mem=2GB
#p hf aug-cc-pvdz output=wfx scf=(conver=6) int=(grid=ultrafine)

title

0 1
  H    0.000000000   0.000000000   1.625883667
 Cl    0.000000000   0.000000000   2.993344991
  H    0.000000000  -2.147713952  -2.468536058
  H    0.000000000  -2.051415327   0.024994095
  C    0.000000000   0.000000000  -2.662336861
  C    0.000000000  -1.196403290  -1.958220630
  C    0.000000000  -1.149313355  -0.572287903
  N    0.000000000   0.000000000   0.100708818
  C   -0.000000000   1.149313355  -0.572287903
  C   -0.000000000   1.196403290  -1.958220630
  H   -0.000000000   2.051415327   0.024994095
  H   -0.000000000   2.147713952  -2.468536058
  H    0.000000000   0.000000000  -3.742914379

1.27_0.95_hydrogenchloride--pyridine.wfx


