%nprocs=4
%mem=2GB
#p hf aug-cc-pvdz output=wfx scf=(conver=6) int=(grid=ultrafine)

title

0 1
  H    0.000015148  -0.932477668   0.000000000
 Br   -0.000005844   0.581740630   0.000000000
  N    0.000025829  -2.496287977   0.000000000
  H   -0.474353806  -2.848753781   0.821647420
  H   -0.474353806  -2.848753781  -0.821647420
  H    0.948781706  -2.848757607   0.000000000

1.28_0.95_hydrogenbromide--ammonia.wfx


