%nprocs=4
%mem=2GB
#p hf aug-cc-pvdz output=wfx scf=(conver=6) int=(grid=ultrafine)

title

0 1
  H    0.036809127   0.227480533  -0.084366851
 Br    0.024581402   1.675889392  -0.191628359
  H   -1.789523808  -1.992123980   1.269794589
  H   -1.909677893  -2.415995589  -0.457282536
  H   -2.212491636  -0.752999865   0.075769236
  C   -1.616698187  -1.641784062   0.252009759
  N   -0.213104263  -1.245684447   0.055277515
  N    0.638053469  -2.112033201   0.235620874
  N    1.499243932  -2.825218198   0.373069795

1.29_0.80_hydrogenbromide--methylazide.wfx


