%nprocs=4
%mem=2GB
#p hf aug-cc-pvdz output=wfx scf=(conver=6) int=(grid=ultrafine)

title

0 1
  H    0.036809127   0.227480533  -0.084366851
 Br    0.024581402   1.675889392  -0.191628359
  H   -1.820762982  -2.176269602   1.287250135
  H   -1.940917067  -2.600141212  -0.439826990
  H   -2.243730810  -0.937145488   0.093224782
  C   -1.647937361  -1.825929684   0.269465305
  N   -0.244343437  -1.429830070   0.072733061
  N    0.606814295  -2.296178824   0.253076420
  N    1.468004758  -3.009363820   0.390525341

1.29_0.90_hydrogenbromide--methylazide.wfx


