%nprocs=4
%mem=2GB
#p hf aug-cc-pvdz output=wfx scf=(conver=6) int=(grid=ultrafine)

title

0 1
  H    0.036809127   0.227480533  -0.084366851
 Br    0.024581402   1.675889392  -0.191628359
  H   -1.805143395  -2.084196791   1.278522362
  H   -1.925297480  -2.508068400  -0.448554763
  H   -2.228111223  -0.845072676   0.084497009
  C   -1.632317774  -1.733856873   0.260737532
  N   -0.228723850  -1.337757258   0.064005288
  N    0.622433882  -2.204106012   0.244348647
  N    1.483624345  -2.917291009   0.381797568

1.29_0.85_hydrogenbromide--methylazide.wfx


