%nprocs=4
%mem=2GB
#p hf aug-cc-pvdz output=wfx scf=(conver=6) int=(grid=ultrafine)

title

0 1
  H    0.297566448  -0.717849564   0.000000000
 Br   -0.085272120  -2.108519111   0.000000000
  H   -1.383632118   4.321598914   0.895536333
  H   -0.755566759   5.735701522   0.000000000
  H   -1.383632118   4.321598914  -0.895536333
  C   -0.869410750   4.658995014   0.000000000
  O    0.494743334   4.134444633   0.000000000
  C    0.599701495   2.860312548   0.000000000
  N    0.734819474   1.715289426   0.000000000

1.30_1.25_hydrogenbromide--methylcyanate.wfx


