%nprocs=4
%mem=2GB
#p hf aug-cc-pvdz output=wfx scf=(conver=6) int=(grid=ultrafine)

title

0 1
  H   -0.130828491   0.131510701  -0.431202063
  I    0.015068266  -0.015261633  -2.148009928
  N   -0.266584292   0.268144997   1.168107817
  H    0.023468871  -0.592443188   1.614789627
  H    0.317412389   1.024404059   1.501705313
  H   -1.228065101   0.460472516   1.418771662

1.32_1.00_hydrogeniodide--ammonia.wfx


