%nprocs=4
%mem=2GB
#p hf aug-cc-pvdz output=wfx scf=(conver=6) int=(grid=ultrafine)

title

0 1
  H    0.113038661   0.093971994  -0.503615560
  I   -0.411387200   0.368949864  -2.030082527
  H   -0.639648245   1.589775503   2.493954430
  H   -0.902683914   0.025387077   3.306363340
  H   -1.616114276   0.335162721   1.713527376
  C   -0.752728965   0.515717911   2.344363372
  N    0.405919390  -0.052545644   1.636220594
  N    1.504992418   0.119342604   2.155681134
  N    2.561308004   0.215024325   2.537056536

1.33_1.10_hydrogeniodide--methylazide.wfx


