%nprocs=4
%mem=2GB
#p hf aug-cc-pvdz output=wfx scf=(conver=6) int=(grid=ultrafine)

title

0 1
  H    0.113038661   0.093971994  -0.503615560
  I   -0.411387200   0.368949864  -2.030082527
  H   -0.666273766   1.603095288   2.299423871
  H   -0.929309435   0.038706862   3.111832781
  H   -1.642739797   0.348482506   1.518996816
  C   -0.779354486   0.529037696   2.149832813
  N    0.379293869  -0.039225859   1.441690035
  N    1.478366897   0.132662389   1.961150574
  N    2.534682483   0.228344110   2.342525977

1.33_1.00_hydrogeniodide--methylazide.wfx


