%nprocs=4
%mem=2GB
#p hf aug-cc-pvdz output=wfx scf=(conver=6) int=(grid=ultrafine)

title

0 1
  H    1.391174318  -0.370824387   3.111886937
  H    1.387640683   0.115283220   4.835428568
  H   -0.070514327  -0.625224102   4.111805692
  C    0.794161053   0.008709142   3.936136486
  O    0.339270400   1.363843718   3.621686587
  C   -0.344329752   1.476459743   2.546459879
  N   -0.955594581   1.598777343   1.573605784

1.34_mon2_hydrogeniodide--methylcyanate.wfx


