%nprocs=4
%mem=2GB
#p hf aug-cc-pvdz output=wfx scf=(conver=6) int=(grid=ultrafine)

title

0 1
  P   -0.702610404  -0.519981065   1.562754175
  F   -0.299160884  -1.309880932   0.227220851
  F   -1.656414137   0.584389133   0.910357034
  H    0.461078219   0.299454524   1.593267503

2.01_mon1_phosphineF2--acetone.wfx


