%nprocs=4
%mem=2GB
#p hf aug-cc-pvdz output=wfx scf=(conver=6) int=(grid=ultrafine)

title

0 1
  H    2.582377616  -1.165915846   0.813866905
  H    1.837728008  -2.002950431   2.183483678
  H    1.185001484  -0.448924302   1.646136014
  H    0.406958227  -1.368265596  -0.711452246
  C    1.643349606  -1.377172665   1.316463701
  S    0.519417506  -2.316211534   0.232847062

2.02_mon1_methanethiol--aceticacid.wfx


