%nprocs=4
%mem=2GB
#p hf aug-cc-pvdz output=wfx scf=(conver=6) int=(grid=ultrafine)

title

0 1
  H    1.332777940   0.616259671  -0.147552513
  H    1.898124798   1.946242462  -1.461539550
  S    1.781280814   1.891357336  -0.127119785
  H   -2.711897450  -1.959599770  -0.093223103
  H   -1.350047456  -2.801958248  -0.749487586
  H   -1.195869750   0.147379296   1.835624609
  H   -1.126045125   1.101476620   0.364704184
  H   -2.596604175   0.178133766   0.753025740
  O    0.310835985  -1.051615999  -0.167726663
  C   -0.884654327  -0.993178038   0.070067369
  N   -1.729869608  -1.993285950  -0.289094594
  C   -1.509478441   0.178393531   0.792639169

2.04_0.95_sulfane--acetamide.wfx


