%nprocs=4
%mem=2GB
#p hf aug-cc-pvdz output=wfx scf=(conver=6) int=(grid=ultrafine)

title

0 1
  H    1.332777940   0.616259671  -0.147552513
  H    1.898124798   1.946242462  -1.461539550
  S    1.781280814   1.891357336  -0.127119785
  H   -3.034615962  -2.486297350  -0.099593887
  H   -1.672765968  -3.328655828  -0.755858370
  H   -1.518588262  -0.379318284   1.829253825
  H   -1.448763638   0.574779040   0.358333400
  H   -2.919322688  -0.348563814   0.746654956
  O   -0.011882527  -1.578313579  -0.174097447
  C   -1.207372840  -1.519875618   0.063696585
  N   -2.052588120  -2.519983530  -0.295465378
  C   -1.832196954  -0.348304049   0.786268385

2.04_1.25_sulfane--acetamide.wfx


