%nprocs=4
%mem=2GB
#p hf aug-cc-pvdz output=wfx scf=(conver=6) int=(grid=ultrafine)

title

0 1
  H   -1.247077974  -2.879191980  -0.332204156
  H   -0.984743417   1.006402387   0.557228392
  H   -2.498525857   0.397988377  -0.157853986
  H   -2.098576747  -0.021530437   1.497481175
  O    0.199089307  -1.120209230  -0.306402269
  C   -0.958035144  -1.056165621   0.027149971
  O   -1.771219813  -2.133981808  -0.007008845
  C   -1.672018818   0.168901527   0.513781361

2.05_mon2_sulfane--aceticacid.wfx


