%nprocs=4
%mem=2GB
#p hf aug-cc-pvdz output=wfx scf=(conver=6) int=(grid=ultrafine)

title

0 1
  H   -0.253890945   0.850576072   0.000000000
  H   -1.208290999   2.552046514   0.000000000
  S    0.073735970   2.159836065   0.000000000
  H   -0.311033789  -0.960589737   2.021782129
  H    0.059575316  -2.512893725   1.235550651
  H    1.259516310  -1.198527948   1.223927594
  H   -0.311033789  -0.960589737  -2.021782129
  H    0.059575316  -2.512893725  -1.235550651
  H    1.259516310  -1.198527948  -1.223927594
  C    0.189538917  -1.427445262   1.177779600
  O   -0.395007740  -0.907833319   0.000000000
  C    0.189538917  -1.427445262  -1.177779600

2.06_0.85_sulfane--dimethylether.wfx


