%nprocs=4
%mem=2GB
#p hf aug-cc-pvdz output=wfx scf=(conver=6) int=(grid=ultrafine)

title

0 1
  H   -0.253890945   0.850576072   0.000000000
  H   -1.208290999   2.552046514   0.000000000
  S    0.073735970   2.159836065   0.000000000
  H   -0.501956512  -3.339614208   2.021782129
  H   -0.131347407  -4.891918196   1.235550651
  H    1.068593587  -3.577552419   1.223927594
  H   -0.501956512  -3.339614208  -2.021782129
  H   -0.131347407  -4.891918196  -1.235550651
  H    1.068593587  -3.577552419  -1.223927594
  C   -0.001383806  -3.806469733   1.177779600
  O   -0.585930463  -3.286857790   0.000000000
  C   -0.001383806  -3.806469733  -1.177779600

2.06_2.00_sulfane--dimethylether.wfx


