%nprocs=4
%mem=2GB
#p hf aug-cc-pvdz output=wfx scf=(conver=6) int=(grid=ultrafine)

title

0 1
  H    1.836567763   1.964089921  -0.037249760
  H    1.105589524   3.674202586  -0.595700393
  S    1.810688642   2.687869208  -1.168211245
  P   -0.003379476  -0.240229101   0.340252187
 Cl   -0.830887356  -1.828699024   1.259591001
 Cl    0.551815236  -0.954780158  -1.453768804
 Cl   -1.570981318   0.949677946  -0.069504846
  O    1.062807032   0.398285930   1.096480069

2.10_0.90_sulfane--POCl3.wfx


