%nprocs=4
%mem=2GB
#p hf aug-cc-pvdz output=wfx scf=(conver=6) int=(grid=ultrafine)

title

0 1
  H    1.836567763   1.964089921  -0.037249760
  H    1.105589524   3.674202586  -0.595700393
  S    1.810688642   2.687869208  -1.168211245
  P    0.039607232  -0.153239990   0.277267196
 Cl   -0.787900648  -1.741709913   1.196606010
 Cl    0.594801944  -0.867791047  -1.516753794
 Cl   -1.527994610   1.036667057  -0.132489836
  O    1.105793740   0.485275041   1.033495078

2.10_0.85_sulfane--POCl3.wfx


