%nprocs=4
%mem=2GB
#p hf aug-cc-pvdz output=wfx scf=(conver=6) int=(grid=ultrafine)

title

0 1
  H    1.836567763   1.964089921  -0.037249760
  H    1.105589524   3.674202586  -0.595700393
  S    1.810688642   2.687869208  -1.168211245
  P   -0.519219962  -1.284098428   1.096072073
 Cl   -1.346727842  -2.872568351   2.015410887
 Cl    0.035974750  -1.998649485  -0.697948918
 Cl   -2.086821804  -0.094191381   0.686315040
  O    0.546966546  -0.645583397   1.852299955

2.10_1.50_sulfane--POCl3.wfx


