%nprocs=4
%mem=2GB
#p hf aug-cc-pvdz output=wfx scf=(conver=6) int=(grid=ultrafine)

title

0 1
  H   -0.064731809   0.051850180  -1.624618161
  F    0.088838349   0.822032063  -2.190519980
  H    0.444749430   1.614119805   1.411538301
  H    0.362460164   1.614116113  -0.327451269
  H   -1.118214482  -1.317069802   1.954293535
  H    0.588970068  -1.716787505   1.873522491
  H    0.072127401  -0.239946267   2.711972845
  O   -0.211870230  -0.800659226  -0.515376631
  C   -0.018376585  -0.186898273   0.536553864
  N    0.288995992   1.122527968   0.552670628
  C   -0.120638890  -0.891752242   1.863298499

2.12_0.90_hydrogenfluoride--acetamide.wfx


