%nprocs=4
%mem=2GB
#p hf aug-cc-pvdz output=wfx scf=(conver=6) int=(grid=ultrafine)

title

0 1
  H    1.593000108   1.515470612  -0.754772096
  H    1.627568654  -0.247890949  -0.474135130
  H    1.870521672   0.899980834   0.860767756
  H   -1.785605014   1.929972628   0.922334602
  H   -0.671104592   2.768094871  -0.181410890
  C    1.326557890   0.712221459  -0.067161399
  C   -0.150227556   0.741653085   0.217769984
  O   -0.849873414  -0.249761996   0.114431187
  C   -0.744504873   2.056171746   0.642913633
  H   -0.178837694   2.478121610   1.474213029

2.14_mon2_hydrogenfluoride--acetone.wfx


