%nprocs=4
%mem=2GB
#p hf aug-cc-pvdz output=wfx scf=(conver=6) int=(grid=ultrafine)

title

0 1
  H    0.641213651   1.077499808  -2.106597882
  F    0.730811460   0.608431767  -2.910652581
 Br   -0.080421129  -0.358290251   0.237738144
  O    0.864727644  -0.480173302   1.528317697
  O   -1.616752128  -0.102797313   0.657391840
  O    0.373935026   1.332108614  -0.454935089
  H   -0.334295089   1.919027562  -0.142784725

2.15_0.95_hydrogenfluoride--bromicacid.wfx


