%nprocs=4
%mem=2GB
#p hf aug-cc-pvdz output=wfx scf=(conver=6) int=(grid=ultrafine)

title

0 1
  H    0.641213651   1.077499808  -2.106597882
  F    0.730811460   0.608431767  -2.910652581
 Br   -0.052286537  -0.385091178   0.063878903
  O    0.892862236  -0.506974229   1.354458456
  O   -1.588617536  -0.129598240   0.483532599
  O    0.402069618   1.305307687  -0.628794330
  H   -0.306160497   1.892226635  -0.316643966

2.15_0.85_hydrogenfluoride--bromicacid.wfx


