%nprocs=4
%mem=2GB
#p hf aug-cc-pvdz output=wfx scf=(conver=6) int=(grid=ultrafine)

title

0 1
  H   -0.837394627  -0.292150111  -1.951062696
  F   -0.514885231   0.312438340  -2.596995252
  H   -1.777824340  -0.881651476  -0.089121960
  H    1.674888786  -1.399382712   0.695414841
  H    0.237327910   1.382908015  -1.323931481
  P    0.116928818   0.059696265   0.391685751
  O   -0.303972806   0.129658362   1.782297839
  O   -0.933942718  -0.771199233  -0.541066583
  O    0.286491576   1.428090146  -0.355013663
  O    1.485224576  -0.680420455   0.083932991

2.19_0.85_hydrogenfluoride--phosphoricacid.wfx


