%nprocs=4
%mem=2GB
#p hf aug-cc-pvdz output=wfx scf=(conver=6) int=(grid=ultrafine)

title

0 1
  H   -0.837394627  -0.292150111  -1.951062696
  F   -0.514885231   0.312438340  -2.596995252
  H   -1.789182939  -0.938010196   0.076759936
  H    1.663530187  -1.455741432   0.861296737
  H    0.225969311   1.326549295  -1.158049585
  P    0.105570219   0.003337545   0.557567647
  O   -0.315331405   0.073299642   1.948179735
  O   -0.945301317  -0.827557953  -0.375184687
  O    0.275132977   1.371731426  -0.189131767
  O    1.473865977  -0.736779175   0.249814887

2.19_0.95_hydrogenfluoride--phosphoricacid.wfx


