%nprocs=4
%mem=2GB
#p hf aug-cc-pvdz output=wfx scf=(conver=6) int=(grid=ultrafine)

title

0 1
  H    0.245679854  -0.156030376  -1.895693416
  F    0.414251896   0.179912897  -2.746626711
  O   -0.254309209  -1.134072500   0.647257986
  S   -0.365046794  -0.593809038   1.978868314
  O   -0.189988773   0.813471898   2.168691092

2.20_1.50_hydrogenfluoride--SO2.wfx


