%nprocs=4
%mem=2GB
#p hf aug-cc-pvdz output=wfx scf=(conver=6) int=(grid=ultrafine)

title

0 1
  H   -0.584351614  -1.027562335   0.000000000
 Cl   -0.012904668  -2.252533912   0.000000000
  H    1.999081817   1.577170502   0.000000000
  H    1.420679022  -0.058299073   0.000000000
  H   -0.855179470   3.114932794  -0.877696901
  H   -0.855179470   3.114932794   0.877696901
  H    0.656161229   3.426550620   0.000000000
  O   -1.002237159   0.589061124   0.000000000
  C   -0.043352335   1.363305320   0.000000000
  N    1.231412011   0.933380512   0.000000000
  C   -0.267609483   2.852862628   0.000000000

2.22_1.05_hydrogenchloride--acetamide.wfx


