%nprocs=4
%mem=2GB
#p hf aug-cc-pvdz output=wfx scf=(conver=6) int=(grid=ultrafine)

title

0 1
  H   -0.584351614  -1.027562335   0.000000000
 Cl   -0.012904668  -2.252533912   0.000000000
  H    2.058779752   1.346224293   0.000000000
  H    1.480376957  -0.289245282   0.000000000
  H   -0.795481535   2.883986585  -0.877696901
  H   -0.795481535   2.883986585   0.877696901
  H    0.715859164   3.195604412   0.000000000
  O   -0.942539224   0.358114916   0.000000000
  C    0.016345600   1.132359111   0.000000000
  N    1.291109946   0.702434303   0.000000000
  C   -0.207911548   2.621916420   0.000000000

2.22_0.90_hydrogenchloride--acetamide.wfx


