%nprocs=4
%mem=2GB
#p hf aug-cc-pvdz output=wfx scf=(conver=6) int=(grid=ultrafine)

title

0 1
  H   -0.584351614  -1.027562335   0.000000000
 Cl   -0.012904668  -2.252533912   0.000000000
  H    1.919484571   1.885098780   0.000000000
  H    1.341081776   0.249629204   0.000000000
  H   -0.934776716   3.422861072  -0.877696901
  H   -0.934776716   3.422861072   0.877696901
  H    0.576563983   3.734478898   0.000000000
  O   -1.081834405   0.896989402   0.000000000
  C   -0.122949581   1.671233598   0.000000000
  N    1.151814765   1.241308790   0.000000000
  C   -0.347206729   3.160790906   0.000000000

2.22_1.25_hydrogenchloride--acetamide.wfx


