%nprocs=4
%mem=2GB
#p hf aug-cc-pvdz output=wfx scf=(conver=6) int=(grid=ultrafine)

title

0 1
  H   -0.210563935   0.623845157   0.000000000
 Cl    0.030262919   1.919061317   0.000000000
  H   -0.325486002  -1.306583948   2.024535962
  H   -0.097679163  -2.886829062   1.239102070
  H    1.218306871  -1.684974088   1.225881103
  H   -0.325486002  -1.306583948  -2.024535962
  H   -0.097679163  -2.886829062  -1.239102070
  H    1.218306871  -1.684974088  -1.225881103
  C    0.133997380  -1.820357970   1.185132717
  O   -0.405051514  -1.254090402   0.000000000
  C    0.133997380  -1.820357970  -1.185132717

2.23_1.10_hydrogenchloride--dimethylether.wfx


