%nprocs=4
%mem=2GB
#p hf aug-cc-pvdz output=wfx scf=(conver=6) int=(grid=ultrafine)

title

0 1
  H    0.677392394   1.621702208   0.000000000
 Cl   -0.001716351   2.739716399   0.000000000
  H   -1.899527788  -1.044625707  -1.388755889
  H   -0.429807774  -0.572720931  -2.281738262
  H   -1.339715197   0.664963404  -1.372970259
  H   -1.339715197   0.664963404   1.372970259
  H   -0.429807774  -0.572720931   2.281738262
  H   -1.899527788  -1.044625707   1.388755889
  O    0.320991779  -2.134065684   0.000000000
  S   -0.003696788  -0.733649263   0.000000000
  O    1.080195616   0.235211551   0.000000000
  C   -1.041149895  -0.379398562  -1.403732425
  C   -1.041149895  -0.379398562   1.403732425

2.24_0.80_hydrogenchloride--dimethylsulfone.wfx


