%nprocs=4
%mem=2GB
#p hf aug-cc-pvdz output=wfx scf=(conver=6) int=(grid=ultrafine)

title

0 1
  H    0.103252217   1.588966216  -2.279157595
  H    0.753540004   2.953927353  -1.337428233
  H   -0.997689566   2.558854228  -1.264879777
  H    0.103252217   1.588966216   2.279157595
  H   -0.997689566   2.558854228   1.264879777
  C    0.009880906   2.159786019  -1.359426576
  S    0.320167764   1.010659480   0.000000000
  O   -0.842065606   0.058017361   0.000000000
  C    0.009880906   2.159786019   1.359426576
  H    0.753540004   2.953927353   1.337428233

2.25_mon2_hydrogenchloride--dimethylsulfoxide.wfx


