%nprocs=4
%mem=2GB
#p hf aug-cc-pvdz output=wfx scf=(conver=6) int=(grid=ultrafine)

title

0 1
  H   -0.373384347  -1.562222782   0.000000000
 Cl    0.104536029  -2.797229754   0.000000000
  H   -0.013918098   1.994026252  -2.279157595
  H    0.636369689   3.358987389  -1.337428233
  H   -1.114859881   2.963914264  -1.264879777
  H   -0.013918098   1.994026252   2.279157595
  H   -1.114859881   2.963914264   1.264879777
  C   -0.107289409   2.564846055  -1.359426576
  S    0.202997449   1.415719516   0.000000000
  O   -0.959235921   0.463077397   0.000000000
  C   -0.107289409   2.564846055   1.359426576
  H    0.636369689   3.358987389   1.337428233

2.25_1.25_hydrogenchloride--dimethylsulfoxide.wfx


