%nprocs=4
%mem=2GB
#p hf aug-cc-pvdz output=wfx scf=(conver=6) int=(grid=ultrafine)

title

0 1
  H   -0.373384347  -1.562222782   0.000000000
 Cl    0.104536029  -2.797229754   0.000000000
  H    0.056384091   1.750990230  -2.279157595
  H    0.706671878   3.115951367  -1.337428233
  H   -1.044557692   2.720878242  -1.264879777
  H    0.056384091   1.750990230   2.279157595
  H   -1.044557692   2.720878242   1.264879777
  C   -0.036987220   2.321810033  -1.359426576
  S    0.273299638   1.172683494   0.000000000
  O   -0.888933732   0.220041375   0.000000000
  C   -0.036987220   2.321810033   1.359426576
  H    0.706671878   3.115951367   1.337428233

2.25_1.10_hydrogenchloride--dimethylsulfoxide.wfx


