%nprocs=4
%mem=2GB
#p hf aug-cc-pvdz output=wfx scf=(conver=6) int=(grid=ultrafine)

title

0 1
  H   -0.130950748  -0.024654388   0.445363631
 Cl    0.439378631  -0.847372435   1.292470218
  O   -0.641182506   0.833947746  -0.555261665
  H   -0.482259441   1.756488866  -0.340385804
  C   -0.055570703   0.530532398  -1.825753750
  H    1.022339941   0.697681740  -1.820065451
  H   -0.247308698  -0.522140976  -2.011023291
  H   -0.515911080   1.120815048  -2.618475082

2.26_0.80_hydrogenchloride--methanol.wfx


