%nprocs=4
%mem=2GB
#p hf aug-cc-pvdz output=wfx scf=(conver=6) int=(grid=ultrafine)

title

0 1
  O   -0.768740445   1.048598280  -0.805417989
  H   -0.609817380   1.971139400  -0.590542128
  C   -0.183128642   0.745182932  -2.075910074
  H    0.894782002   0.912332274  -2.070221775
  H   -0.374866637  -0.307490442  -2.261179615
  H   -0.643469019   1.335465582  -2.868631406

2.26_mon2_hydrogenchloride--methanol.wfx


