%nprocs=4
%mem=2GB
#p hf aug-cc-pvdz output=wfx scf=(conver=6) int=(grid=ultrafine)

title

0 1
  H   -0.130950748  -0.024654388   0.445363631
 Cl    0.439378631  -0.847372435   1.292470218
  O   -1.087635294   1.585224614  -1.430808799
  H   -0.928712228   2.507765734  -1.215932938
  C   -0.502023490   1.281809266  -2.701300884
  H    0.575887154   1.448958608  -2.695612585
  H   -0.693761486   0.229135892  -2.886570425
  H   -0.962363868   1.872091916  -3.494022216

2.26_1.50_hydrogenchloride--methanol.wfx


