%nprocs=4
%mem=2GB
#p hf aug-cc-pvdz output=wfx scf=(conver=6) int=(grid=ultrafine)

title

0 1
  H   -0.832296971  -0.619441601  -1.680940386
 Cl   -0.383940710   0.039732709  -2.699319771
  H   -1.840994705  -0.927389837   1.301931994
  H    1.670341331  -1.511708226   1.775268238
  H    0.257670852   1.208028569  -0.183075680
  P    0.104949199  -0.035401074   1.595047584
  O   -0.177422758   0.127811327   3.012905930
  O   -1.007409951  -0.920290710   0.819075726
  O    0.208519301   1.305860867   0.779510494
  O    1.444899887  -0.783665126   1.187449546

2.27_1.25_hydrogenchloride--phosphoricacid.wfx


