%nprocs=4
%mem=2GB
#p hf aug-cc-pvdz output=wfx scf=(conver=6) int=(grid=ultrafine)

title

0 1
  H   -1.805972109  -0.867220015   0.801928772
  H    1.705363927  -1.451538404   1.275265016
  H    0.292693448   1.268198391  -0.683078902
  P    0.139971795   0.024768748   1.095044362
  O   -0.142400162   0.187981149   2.512902707
  O   -0.972387355  -0.860120888   0.319072504
  O    0.243541897   1.366030689   0.279507272
  O    1.479922483  -0.723495304   0.687446323

2.27_mon2_hydrogenchloride--phosphoricacid.wfx


