%nprocs=4
%mem=2GB
#p hf aug-cc-pvdz output=wfx scf=(conver=6) int=(grid=ultrafine)

title

0 1
  H    0.871142764  -2.312108758   0.000000000
 Cl    0.307298170  -3.478726849   0.000000000
  P    0.436947218   1.461784648   0.000000000
 Cl   -0.788391392   1.352517712   1.584057720
 Cl   -0.788391392   1.352517712  -1.584057720
 Cl    1.089127346   3.359717462   0.000000000
  O    1.507548248   0.471451584   0.000000000

2.28_1.50_hydrogenchloride--POCl3.wfx


