%nprocs=4
%mem=2GB
#p hf aug-cc-pvdz output=wfx scf=(conver=6) int=(grid=ultrafine)

title

0 1
  H    0.871142764  -2.312108758   0.000000000
 Cl    0.307298170  -3.478726849   0.000000000
  P    0.139957991   0.162789821   0.000000000
 Cl   -1.085380618   0.053522886   1.584057720
 Cl   -1.085380618   0.053522886  -1.584057720
 Cl    0.792138119   2.060722635   0.000000000
  O    1.210559022  -0.827543242   0.000000000

2.28_0.80_hydrogenchloride--POCl3.wfx


