%nprocs=4
%mem=2GB
#p hf aug-cc-pvdz output=wfx scf=(conver=6) int=(grid=ultrafine)

title

0 1
  H    0.871142764  -2.312108758   0.000000000
 Cl    0.307298170  -3.478726849   0.000000000
  P    0.161171508   0.255575166   0.000000000
 Cl   -1.064167101   0.146308231   1.584057720
 Cl   -1.064167101   0.146308231  -1.584057720
 Cl    0.813351636   2.153507980   0.000000000
  O    1.231772539  -0.734757897   0.000000000

2.28_0.85_hydrogenchloride--POCl3.wfx


