%nprocs=4
%mem=2GB
#p hf aug-cc-pvdz output=wfx scf=(conver=6) int=(grid=ultrafine)

title

0 1
  H    0.164404635  -0.143388383  -1.463844896
 Cl    0.448835015   0.375928693  -2.606531987
  O   -0.241836923  -0.864144524   0.206236191
  S   -0.294115050  -0.336827763   1.544392955
  O    0.018618464   1.044834605   1.755401595

2.29_0.90_hydrogenchloride--SO2.wfx


