%nprocs=4
%mem=2GB
#p hf aug-cc-pvdz output=wfx scf=(conver=6) int=(grid=ultrafine)

title

0 1
  H   -0.064352184  -0.188326900  -0.093549965
 Cl    0.085737575   0.878306338   0.638965120
  O   -0.173131862  -1.379357527  -0.967054163
  H   -0.291444260  -1.144735646  -1.891728455
  H    0.614651478  -1.929285004  -0.934724902

2.31_0.80_hydrogenchloride--water.wfx


