%nprocs=4
%mem=2GB
#p hf aug-cc-pvdz output=wfx scf=(conver=6) int=(grid=ultrafine)

title

0 1
  H    0.420860164  -0.040816655   0.328447977
 Br   -0.175784307   0.059859923  -0.997558702
  O    1.504970774  -0.371020843   3.702673767
  H    1.878819354  -1.246394481   3.832826693
  C    0.380738843  -0.198152906   4.572105417
  H   -0.010478513   0.795902507   4.377293710
  H   -0.400277335  -0.931555361   4.367143665
  H    0.682792317  -0.263300855   5.617640685

2.36_2.00_hydrogenbromide--methanol.wfx


