%nprocs=4
%mem=2GB
#p hf aug-cc-pvdz output=wfx scf=(conver=6) int=(grid=ultrafine)

title

0 1
  H   -0.435743197  -0.504495451   0.000000000
 Br   -0.101991652  -1.933123719   0.000000000
  C   -1.094820454   3.352409030   0.000000000
  H   -1.738221465   3.357733855  -0.877664029
  H   -0.481063521   4.250685889   0.000000000
  H   -1.738221465   3.357733855   0.877664029
  C   -0.290784882   2.074672329   0.000000000
  O   -0.854759554   0.982264823   0.000000000
  N    1.049142827   2.203844908   0.000000000
  H    1.437972924   3.128274423   0.000000000
  C    1.951828784   1.063559310   0.000000000
  H    1.794627079   0.443242477   0.879891894
  H    1.794627079   0.443242477  -0.879891894
  H    2.973847675   1.430493200   0.000000000

2.37_0.90_hydrogenbromide--Nmethylacetamide.wfx


