%nprocs=4
%mem=2GB
#p hf aug-cc-pvdz output=wfx scf=(conver=6) int=(grid=ultrafine)

title

0 1
  H   -0.355325381  -0.589617444   0.000000000
 Br    0.180581142  -1.914407193   0.000000000
  O   -1.460689523   2.428788764   0.000000000
  S   -0.771596221   3.691843950   0.000000000
  O    0.661023350   3.697814698   0.000000000

2.39_1.50_hydrogenbromide--SO2.wfx


