%nprocs=4
%mem=2GB
#p hf aug-cc-pvdz output=wfx scf=(conver=6) int=(grid=ultrafine)

title

0 1
  H   -0.355325381  -0.589617444   0.000000000
 Br    0.180581142  -1.914407193   0.000000000
  O   -1.018543866   1.221426280   0.000000000
  S   -0.329450564   2.484481466   0.000000000
  O    1.103169007   2.490452216   0.000000000

2.39_0.90_hydrogenbromide--SO2.wfx


