%nprocs=4
%mem=2GB
#p hf aug-cc-pvdz output=wfx scf=(conver=6) int=(grid=ultrafine)

title

0 1
  H   -0.355325381  -0.589617444   0.000000000
 Br    0.180581142  -1.914407193   0.000000000
  O   -1.055389338   1.322039821   0.000000000
  S   -0.366296036   2.585095007   0.000000000
  O    1.066323535   2.591065756   0.000000000

2.39_0.95_hydrogenbromide--SO2.wfx


