%nprocs=4
%mem=2GB
#p hf aug-cc-pvdz output=wfx scf=(conver=6) int=(grid=ultrafine)

title

0 1
  H    0.071394933  -0.809742021   0.000000000
 Br   -0.001576637   0.634496597   0.000000000
  O    0.056223709  -2.602368088   0.000000000
  H   -0.412988508  -2.943670123   0.766571910
  H   -0.412988508  -2.943670123  -0.766571910

2.41_0.95_hydrogenbromide--water.wfx


