%nprocs=4
%mem=2GB
#p hf aug-cc-pvdz output=wfx scf=(conver=6) int=(grid=ultrafine)

title

0 1
  H    0.041635603   0.232833156  -0.352100741
  I    0.315999267   1.350696445  -1.522499325
  H    0.831938314   1.609097062   1.197667641
  H   -0.007869629  -1.427283098   3.678480423
  H    1.421248538  -0.416566939   4.012308607
  H   -0.183355859   0.244117923   4.272546120
  O   -0.028042959  -0.557151989   1.276829723
  C    0.376381643   0.077094136   2.225491654
  O    0.862285180   1.324062096   2.125764126
  C    0.398359691  -0.423194682   3.638266905

2.42_0.95_hydrogeniodide--aceticacid.wfx


