%nprocs=4
%mem=2GB
#p hf aug-cc-pvdz output=wfx scf=(conver=6) int=(grid=ultrafine)

title

0 1
  H    0.041635603   0.232833156  -0.352100741
  I    0.315999267   1.350696445  -1.522499325
  H    0.820936436   1.484362565   1.454867188
  H   -0.018871508  -1.552017595   3.935679970
  H    1.410246660  -0.541301436   4.269508154
  H   -0.194357738   0.119383426   4.529745667
  O   -0.039044838  -0.681886486   1.534029270
  C    0.365379764  -0.047640361   2.482691201
  O    0.851283302   1.199327599   2.382963673
  C    0.387357812  -0.547929179   3.895466452

2.42_1.10_hydrogeniodide--aceticacid.wfx


