%nprocs=4
%mem=2GB
#p hf aug-cc-pvdz output=wfx scf=(conver=6) int=(grid=ultrafine)

title

0 1
  H   -0.220400800   0.435720945  -1.006476719
  I   -0.542220943  -0.870537170  -1.898724404
 Br   -1.071660846  -1.273262802   2.218713174
  O   -0.672555375  -1.569789818   3.758212248
  O   -2.605620060  -0.800462436   2.110415796
  O   -0.111316295   0.271657864   1.894402017
  H    0.017264516   0.658972178   2.776008488

2.44_1.10_hydrogeniodide--bromicacid.wfx


