%nprocs=4
%mem=2GB
#p hf aug-cc-pvdz output=wfx scf=(conver=6) int=(grid=ultrafine)

title

0 1
  H    0.007478603   0.065599768  -0.422887203
  I    0.140066758   1.105359789  -1.659105263
  P   -0.376110377   0.451410939   2.635595116
 Cl   -1.954626737   1.647670345   2.304581159
 Cl    1.188723271   1.708717773   2.688425328
 Cl   -0.597600325  -0.141898150   4.543280231
  O   -0.238581877  -0.641573598   1.682854258

2.48_1.05_hydrogeniodide--POCl3.wfx


