%nprocs=4
%mem=2GB
#p hf aug-cc-pvdz output=wfx scf=(conver=6) int=(grid=ultrafine)

title

0 1
  H    0.007478603   0.065599768  -0.422887203
  I    0.140066758   1.105359789  -1.659105263
  P   -0.317524548   0.619785550   2.134228101
 Cl   -1.896040908   1.816044956   1.803214144
 Cl    1.247309100   1.877092384   2.187058313
 Cl   -0.539014496   0.026476461   4.041913216
  O   -0.179996048  -0.473198987   1.181487243

2.48_0.80_hydrogeniodide--POCl3.wfx


