%nprocs=4
%mem=2GB
#p hf aug-cc-pvdz output=wfx scf=(conver=6) int=(grid=ultrafine)

title

0 1
  H   -0.726733490  -1.763073899   1.698500682
  I   -1.111371368  -3.313841224   1.371626229
  H   -1.043519462   2.400723673   5.347394722
  H   -1.529386031   3.271457364   3.877746995
  H   -2.611542841   2.050987828   4.588377067
  H   -4.257560718   0.141509511   0.939031923
  H    1.716540258   0.297364039   2.605504692
  H   -3.048381887   1.119181425   0.079397738
  H   -2.824321644  -0.639992154   0.241295759
  H    1.689387164  -0.674631221   1.116946801
  O   -0.137774992  -0.022784458   1.728396269
  P   -1.130169508   1.245836135   2.039732187
  O   -0.927313236   1.282695282   3.651071818
  C   -1.571020344   2.314228439   4.401861772
  O   -2.537655006   0.438494120   1.989319913
  C   -3.197488837   0.257340318   0.732789249
  C    1.271470765   0.194462297   1.617034083
  H    1.481698733   1.087539716   1.026648859

2.50_0.95_hydrogeniodide--trimethylphosphite.wfx


