%nprocs=4
%mem=2GB
#p hf aug-cc-pvdz output=wfx scf=(conver=6) int=(grid=ultrafine)

title

0 1
  H   -1.012521646   2.492317854   5.348968174
  H   -1.498388215   3.363051545   3.879320447
  H   -2.580545025   2.142582009   4.589950519
  H   -4.226562902   0.233103692   0.940605375
  H    1.747538074   0.388958220   2.607078144
  H   -3.017384071   1.210775606   0.080971190
  H   -2.793323828  -0.548397973   0.242869211
  H    1.720384980  -0.583037040   1.118520253
  O   -0.106777176   0.068809723   1.729969721
  P   -1.099171692   1.337430316   2.041305639
  O   -0.896315420   1.374289463   3.652645270
  C   -1.540022528   2.405822620   4.403435224
  O   -2.506657190   0.530088301   1.990893365
  C   -3.166491021   0.348934499   0.734362701
  C    1.302468581   0.286056478   1.618607535
  H    1.512696549   1.179133897   1.028222311

2.50_mon2_hydrogeniodide--trimethylphosphite.wfx


