%nprocs=4
%mem=2GB
#p hf aug-cc-pvdz output=wfx scf=(conver=6) int=(grid=ultrafine)

title

0 1
  H   -0.724097678  -0.806459658   0.719600863
  I    0.234343463   0.488298445   0.471807322
  O   -2.882043996  -4.165982372   1.196662361
  H   -3.045569679  -4.572084279   0.340912081
  H   -2.374162705  -4.811716314   1.695712735

2.51_2.00_hydrogeniodide--water.wfx


