%nprocs=4
%mem=2GB
#p hf aug-cc-pvdz output=wfx scf=(conver=6) int=(grid=ultrafine)

title

0 1
  H   -0.724097678  -0.806459658   0.719600863
  I    0.234343463   0.488298445   0.471807322
  O   -2.342557416  -3.326101694   1.077396986
  H   -2.506083100  -3.732203600   0.221646706
  H   -1.834676126  -3.971835636   1.576447360

2.51_1.50_hydrogeniodide--water.wfx


