%nprocs=4
%mem=2GB
#p hf aug-cc-pvdz output=wfx scf=(conver=6) int=(grid=ultrafine)

title

0 1
  H   -2.885182417  -1.795970810   0.000000000
  H   -1.656438962  -2.697454295  -0.885880150
  H   -1.656438962  -2.697454295   0.885880150
  H    1.478760232   0.993806816   0.000000000
  H    1.920246415  -2.650016098  -0.874979008
  H    2.513714526  -0.138605662   0.877120118
  H    2.513714526  -0.138605662  -0.877120118
  H    0.495889176  -3.217566870   0.000000000
  H    1.920246415  -2.650016098   0.874979008
  P   -0.805301446  -0.543980050   0.000000000
  C    0.788060344  -1.063655325   0.000000000
  C    1.871787159  -0.020521252   0.000000000
  C    1.287867543  -2.475409777   0.000000000
  C   -1.837200579  -2.090085686   0.000000000

3.01_mon2_ethyne--phosphaalkene.wfx


