%nprocs=4
%mem=2GB
#p hf aug-cc-pvdz output=wfx scf=(conver=6) int=(grid=ultrafine)

title

0 1
  C    0.000000265   2.043588826   0.000000000
  H    0.000000179   0.979121358   0.000000000
  C    0.000000282   3.239753475   0.000000000
  H    0.000000279   4.300903661   0.000000000
  P   -0.000000211  -1.807354969   0.000000000
  H   -0.598123864  -2.564911372   1.035981141
  H   -0.598123864  -2.564911372  -1.035981141
  H    1.196247948  -2.564911201   0.000000000

3.02_0.95_ethyne--phosphine.wfx


