%nprocs=4
%mem=2GB
#p hf aug-cc-pvdz output=wfx scf=(conver=6) int=(grid=ultrafine)

title

0 1
  C    3.411989761   0.148553366  -0.221239956
  H    2.404121719   0.484105002  -0.133983043
  C    4.536900456  -0.247449707  -0.318050681
  H    5.536154115  -0.594264263  -0.404215251

3.05_mon1_ethyne--trimethylphosphite.wfx


