%nprocs=4
%mem=2GB
#p hf aug-cc-pvdz output=wfx scf=(conver=6) int=(grid=ultrafine)

title

0 1
  N   -0.233556663   3.539110902   0.000000000
  H   -0.767401299   2.676750923   0.000000000
  H   -0.515895411   4.069148581   0.814742626
  H   -0.515895411   4.069148581  -0.814742626
  H   -2.894800901  -2.811141884   0.000000000
  H   -1.646578179  -3.685296716  -0.885747315
  H   -1.646578179  -3.685296716   0.885747315
  H    1.417447553   0.076274643   0.000000000
  H    1.923406077  -3.560491320  -0.874793964
  H    2.470177637  -1.044400862   0.876398457
  H    2.470177637  -1.044400862  -0.876398457
  H    0.510388593  -4.156566804   0.000000000
  H    1.923406077  -3.560491320   0.874793964
  P   -0.843158088  -1.511219196   0.000000000
  C    0.761961102  -1.995938922   0.000000000
  C    1.825518724  -0.932345844   0.000000000
  C    1.287374297  -3.398651888   0.000000000
  C   -1.840372917  -3.081671124   0.000000000

3.06_1.50_ammonia--phosphaalkene.wfx


