%nprocs=4
%mem=2GB
#p hf aug-cc-pvdz output=wfx scf=(conver=6) int=(grid=ultrafine)

title

0 1
  N   -0.233556663   3.539110902   0.000000000
  H   -0.767401299   2.676750923   0.000000000
  H   -0.515895411   4.069148581   0.814742626
  H   -0.515895411   4.069148581  -0.814742626

3.06_mon1_ammonia--phosphaalkene.wfx


