%nprocs=4
%mem=2GB
#p hf aug-cc-pvdz output=wfx scf=(conver=6) int=(grid=ultrafine)

title

0 1
  N   -0.233556663   3.539110902   0.000000000
  H   -0.767401299   2.676750923   0.000000000
  H   -0.515895411   4.069148581   0.814742626
  H   -0.515895411   4.069148581  -0.814742626
  H   -2.920053164  -4.207131923   0.000000000
  H   -1.671830442  -5.081286756  -0.885747315
  H   -1.671830442  -5.081286756   0.885747315
  H    1.392195290  -1.319715396   0.000000000
  H    1.898153814  -4.956481359  -0.874793964
  H    2.444925374  -2.440390901   0.876398457
  H    2.444925374  -2.440390901  -0.876398457
  H    0.485136330  -5.552556843   0.000000000
  H    1.898153814  -4.956481359   0.874793964
  P   -0.868410351  -2.907209235   0.000000000
  C    0.736708839  -3.391928962   0.000000000
  C    1.800266461  -2.328335883   0.000000000
  C    1.262122034  -4.794641927   0.000000000
  C   -1.865625180  -4.477661164   0.000000000

3.06_2.00_ammonia--phosphaalkene.wfx


