%nprocs=4
%mem=2GB
#p hf aug-cc-pvdz output=wfx scf=(conver=6) int=(grid=ultrafine)

title

0 1
  N    0.293708948   3.065122439   0.000000000
  H    0.918460321   2.265199024   0.000000000
  H    0.519131365   3.622803887  -0.814146044
  H    0.519131365   3.622803887   0.814146044
  H    1.183652348  -2.035973691   0.880350997
  H    1.183652348  -2.035973691  -0.880350997
  H   -0.346981521  -2.203098737   0.000000000
  H   -0.189032854   0.125662238   2.346889984
  H   -1.573294655  -0.279964319   1.314488545
  H   -1.005510983   1.398506751   1.434629011
  H   -0.189032854   0.125662238  -2.346889984
  H   -1.005510983   1.398506751  -1.434629011
  H   -1.573294655  -0.279964319  -1.314488545
  P    0.479554864   0.127852261   0.000000000
  C    0.628732488  -1.714084005   0.000000000
  C   -0.691514873   0.356335157   1.408288849
  C   -0.691514873   0.356335157  -1.408288849

3.07_0.80_ammonia--trimethylphosphine.wfx


