%nprocs=4
%mem=2GB
#p hf aug-cc-pvdz output=wfx scf=(conver=6) int=(grid=ultrafine)

title

0 1
  N   -1.301351763   2.349132670  -2.378570685
  H   -1.353211443   1.840444713  -1.502279560
  H   -1.362255491   3.336077953  -2.162376317
  H   -2.122945559   2.110083083  -2.919275914
  H    3.278624724  -0.152121397   3.861769212
  H    1.649132339   0.040894043   3.182902642
  H    2.027246374  -1.367281655   4.200699631
  H   -0.206850332  -4.620960548   2.041179281
  H    4.323297726  -1.201134010  -0.375736585
  H   -0.545669205  -3.319127510   0.882325704
  H    0.633434728  -4.586972597   0.475785462
  H    3.805224720  -2.328289186  -1.645411589
  O    2.803404479  -2.528029542   0.114465624
  P    1.790234706  -1.864062019   1.190133687
  O    2.878463644  -1.404785966   2.308978416
  C    2.423178924  -0.681838900   3.451695892
  O    1.271090705  -3.229130481   1.909792312
  C    0.229649349  -3.976521653   1.283137027
  C    3.463950370  -1.684163143  -0.839942837
  H    2.786389229  -0.928680429  -1.239407002

3.08_2.00_ammonia--trimethylphosphite.wfx


