%nprocs=4
%mem=2GB
#p hf aug-cc-pvdz output=wfx scf=(conver=6) int=(grid=ultrafine)

title

0 1
  H    3.055326158  -1.260994544  -0.807340628
  H    1.316097821  -1.425137958  -0.533734283
  H    2.418703858  -1.312039241   0.839973837
  P    1.946110101   2.034072821  -0.189840964
  C    2.086651100   0.499339969  -0.180524199
  C    2.227049773  -0.946556325  -0.170282876

3.11_mon2_Nmethylacetamide--phosphaalkyne.wfx


