%nprocs=4
%mem=2GB
#p hf aug-cc-pvdz output=wfx scf=(conver=6) int=(grid=ultrafine)

title

0 1
  C   -0.084945497  -1.314815529   0.000000000
  O   -1.076787293  -0.627493090   0.000000000
  O    1.159809176  -0.804201432   0.000000000
  H    1.082864857   0.170471181   0.000000000
  C   -0.073613363  -2.817208486   0.000000000
  H   -1.091130905  -3.191480443   0.000000000
  H    0.459604379  -3.181393088  -0.877116424
  H    0.459604379  -3.181393088   0.877116424
  P   -1.004662107   4.564134191   0.000000000
  H   -0.764334694   5.959839430   0.000000000
  H   -1.954648018   4.590411755  -1.043236291
  H   -1.954648018   4.590411755   1.043236291

3.14_2.00_aceticacid--phosphine.wfx


