%nprocs=4
%mem=2GB
#p hf aug-cc-pvdz output=wfx scf=(conver=6) int=(grid=ultrafine)

title

0 1
  C    0.077806453   2.937781743   0.000000000
  O    0.995448545   2.158059434   0.000000000
  O   -1.214129180   2.545693158   0.000000000
  H   -1.227671313   1.574475547   0.000000000
  C    0.202846159   4.434074253   0.000000000
  H    1.250375252   4.713137715   0.000000000
  H   -0.294688621   4.845323034  -0.877228600
  H   -0.294688621   4.845323034   0.877228600
  P   -0.163255326  -3.413490659   0.000000000
  P   -0.273539703  -1.515048599  -1.106528992
  P   -0.273539703  -1.515048599   1.106528992
  P    1.550686599  -2.009190156   0.000000000

3.18_1.25_aceticacid--P4.wfx


