%nprocs=4
%mem=2GB
#p hf aug-cc-pvdz output=wfx scf=(conver=6) int=(grid=ultrafine)

title

0 1
  O   -0.691021334   3.282543723   0.000000000
  H   -1.057771960   2.394413199   0.000000000
  C    0.725330428   3.188416135   0.000000000
  H    1.110606985   4.205205472   0.000000000
  H    1.103186055   2.675156900   0.888747891
  H    1.103186055   2.675156900  -0.888747891
  P   -0.512761186  -1.554475690   0.000000000
  P   -0.603666244   0.345021069  -1.105768740
  P   -0.603666244   0.345021069   1.105768740
  P    1.220878803  -0.191318738   0.000000000

3.19_0.80_methanol--P4.wfx


