%nprocs=4
%mem=2GB
#p hf aug-cc-pvdz output=wfx scf=(conver=6) int=(grid=ultrafine)

title

0 1
  O   -0.055282958  -3.813648339   0.000000000
  H   -0.046670971  -2.851240870   0.000000000
  H    0.870130074  -4.069307195   0.000000000
  P    0.035069682   2.739712993  -1.103647172
  P   -1.111341602   1.220310547   0.000000000
  P    1.101494787   1.165449094   0.000000000
  P    0.035069682   2.739712993   1.103647172

3.20_1.50_water--P4.wfx


