%nprocs=4
%mem=2GB
#p hf aug-cc-pvdz output=wfx scf=(conver=6) int=(grid=ultrafine)

title

0 1
  O   -0.055282958  -3.813648339   0.000000000
  H   -0.046670971  -2.851240870   0.000000000
  H    0.870130074  -4.069307195   0.000000000
  P    0.016044816   0.896758635  -1.103647172
  P   -1.130366468  -0.622643811   0.000000000
  P    1.082469921  -0.677505264   0.000000000
  P    0.016044816   0.896758635   1.103647172

3.20_0.85_water--P4.wfx


