%nprocs=4
%mem=2GB
#p hf aug-cc-pvdz output=wfx scf=(conver=6) int=(grid=ultrafine)

title

0 1
  P    0.020435170   1.322055795  -1.103647172
  P   -1.125976114  -0.197346651   0.000000000
  P    1.086860275  -0.252208104   0.000000000
  P    0.020435170   1.322055795   1.103647172

3.20_mon2_water--P4.wfx


