%nprocs=4
%mem=2GB
#p hf aug-cc-pvdz output=wfx scf=(conver=6) int=(grid=ultrafine)

title

0 1
  P    0.744112094  -3.104102616  -0.148353380
  F    1.659188062  -2.295848043   0.879126275
  F    1.133200289  -2.338287709  -1.493177108
  H   -0.442119718  -2.346413712   0.100993132
  P    0.701224086   0.991519475   0.771871958
  P   -1.394837614   0.375760881   0.497387182
  P   -0.800781280   2.455781738   0.093324155
  P   -0.142769337   0.840998605  -1.254400560

3.21_1.00_phosphineF2--P4.wfx


