%nprocs=4
%mem=2GB
#p hf aug-cc-pvdz output=wfx scf=(conver=6) int=(grid=ultrafine)

title

0 1
  P    0.744112094  -3.104102616  -0.148353380
  F    1.659188062  -2.295848043   0.879126275
  F    1.133200289  -2.338287709  -1.493177108
  H   -0.442119718  -2.346413712   0.100993132
  P    0.844131770   0.583193286   0.712412850
  P   -1.251929930  -0.032565308   0.437928074
  P   -0.657873596   2.047455549   0.033865048
  P    0.000138347   0.432672416  -1.313859668

3.21_0.85_phosphineF2--P4.wfx


