%nprocs=4
%mem=2GB
#p hf aug-cc-pvdz output=wfx scf=(conver=6) int=(grid=ultrafine)

title

0 1
  H    2.342786443  -0.084659452   0.135623443
  H    2.811872286   0.335891185   1.789041428
  H    1.142378625   0.590995421   1.258094484
  H    0.645472434  -2.001413154   0.944035276
  C    2.009640629  -0.054668635   1.168249168
  S    1.648385678  -1.726924086   1.793003242
  H    0.132413590  -0.162011637  -2.910499089
  H   -2.545951522   0.147485174   0.874984503
  C   -0.121032095   1.679841522  -1.886165153
  C   -0.351334899   0.325412300  -2.073100949
  P   -1.359610686  -0.667164181  -1.072045281
  C   -1.887014507   0.503241255   0.092909831
  C   -1.531015942   1.842931832   0.100163493
  C   -0.685105219   2.411504981  -0.846816291
  H   -1.925834475   2.481536243   0.880738904
  H   -0.455089811   3.464943412  -0.770019080
  H    0.530037977   2.197374300  -2.579922559

3.22_1.10_methanethiol--phosphorine.wfx


