%nprocs=4
%mem=2GB
#p hf aug-cc-pvdz output=wfx scf=(conver=6) int=(grid=ultrafine)

title

0 1
  H    0.020542336  -0.413691647  -0.573223040
  H    1.438772101  -0.686744351   0.722528447
  S    1.343149904  -0.651669470  -0.614618208
  H   -2.406319143  -3.454973961  -1.714055419
  H   -2.382037269  -3.687548627   0.037018080
  H   -0.984811125  -2.974424988  -0.779181928
  P   -3.230026874  -0.283200454  -0.390664392
  C   -2.637987585  -1.692359515  -0.585555050
  C   -2.075809719  -3.019030218  -0.769602376

3.24_1.10_sulfane--phosphaalkyne.wfx


