%nprocs=4
%mem=2GB
#p hf aug-cc-pvdz output=wfx scf=(conver=6) int=(grid=ultrafine)

title

0 1
  H    0.020542336  -0.413691647  -0.573223040
  H    1.438772101  -0.686744351   0.722528447
  S    1.343149904  -0.651669470  -0.614618208
  H   -2.110812851  -3.466836797  -1.730651660
  H   -2.086530977  -3.699411463   0.020421839
  H   -0.689304833  -2.986287824  -0.795778169
  P   -2.934520582  -0.295063290  -0.407260633
  C   -2.342481293  -1.704222351  -0.602151291
  C   -1.780303427  -3.030893054  -0.786198617

3.24_1.00_sulfane--phosphaalkyne.wfx


