%nprocs=4
%mem=2GB
#p hf aug-cc-pvdz output=wfx scf=(conver=6) int=(grid=ultrafine)

title

0 1
  H    1.519797422   2.318425902   0.423570945
  H    3.309369570   1.790796869  -0.096292673
  S    2.715564620   2.217844740   1.027759485
  H   -0.984528808  -2.271720571   0.114142269
  H   -4.619789507  -1.367435636  -2.639683668
  C   -2.375339384  -3.792873673  -0.414758556
  C   -1.885359145  -2.496213505  -0.442910290
  P   -2.604800868  -1.179236722  -1.307699945
  C   -3.969013808  -1.973801782  -2.022114620
  C   -4.283699699  -3.314461580  -1.861789156
  C   -3.523209774  -4.189300872  -1.092832862
  H   -5.164194251  -3.704417546  -2.357573609
  H   -3.838165155  -5.220864358  -1.019121200
  H   -1.841149409  -4.537336315   0.162803155

3.26_2.00_sulfane--phosphorine.wfx


