%nprocs=4
%mem=2GB
#p hf aug-cc-pvdz output=wfx scf=(conver=6) int=(grid=ultrafine)

title

0 1
  H   -0.309778637   1.408639177   0.033212071
  F   -0.130618760   2.322985077  -0.026014150
  H    1.636683601  -0.782104351  -0.890553794
  H    2.021917477  -2.483908940  -0.599616466
  H    1.991165812  -1.336872967   0.745989602
  P   -1.391208824  -2.234687534   0.233130968
  C    0.098739792  -1.899811172   0.014425072
  C    1.508267768  -1.611137112  -0.193197514

3.29_1.50_hydrogenfluoride--phosphaalkyne.wfx


