%nprocs=4
%mem=2GB
#p hf aug-cc-pvdz output=wfx scf=(conver=6) int=(grid=ultrafine)

title

0 1
  H    0.086945339   0.054117457  -0.739641941
  F   -0.023143367  -0.097459753  -1.657916584
  P    0.350100666   0.429226897   1.511205068
  H   -0.294877745  -0.385456883   2.467402883
  H    1.623238258   0.376380303   2.119752315
  H   -0.031875464   1.657133262   2.094602668

3.30_1.00_hydrogenfluoride--phosphine.wfx


