%nprocs=4
%mem=2GB
#p hf aug-cc-pvdz output=wfx scf=(conver=6) int=(grid=ultrafine)

title

0 1
  H    0.086945339   0.054117457  -0.739641941
  F   -0.023143367  -0.097459753  -1.657916584
  P    0.481678330   0.616781617   2.636628572
  H   -0.163300082  -0.197902163   3.592826388
  H    1.754815922   0.563935023   3.245175820
  H    0.099702200   1.844687982   3.220026172

3.30_1.50_hydrogenfluoride--phosphine.wfx


