%nprocs=4
%mem=2GB
#p hf aug-cc-pvdz output=wfx scf=(conver=6) int=(grid=ultrafine)

title

0 1
  H    0.086945339   0.054117457  -0.739641941
  F   -0.023143367  -0.097459753  -1.657916584
  P    0.336942900   0.410471425   1.398662718
  H   -0.308035511  -0.404212355   2.354860533
  H    1.610080492   0.357624831   2.007209965
  H   -0.045033230   1.638377790   1.982060318

3.30_0.95_hydrogenfluoride--phosphine.wfx


