%nprocs=4
%mem=2GB
#p hf aug-cc-pvdz output=wfx scf=(conver=6) int=(grid=ultrafine)

title

0 1
  H    0.086945339   0.054117457  -0.739641941
  F   -0.023143367  -0.097459753  -1.657916584
  P    0.297469601   0.354205009   1.061035666
  H   -0.347508810  -0.460478771   2.017233481
  H    1.570607193   0.301358415   1.669582913
  H   -0.084506529   1.582111374   1.644433266

3.30_0.80_hydrogenfluoride--phosphine.wfx


