%nprocs=4
%mem=2GB
#p hf aug-cc-pvdz output=wfx scf=(conver=6) int=(grid=ultrafine)

title

0 1
  H    0.331345486   1.884346591   0.000000000
 Cl   -0.055022791   3.130768445   0.000000000
  H    2.961833853  -0.559720834   0.000000000
  H    2.057947033  -1.787388756   0.886439173
  H    2.057947033  -1.787388756  -0.886439173
  H   -2.015528293   0.840410682   0.000000000
  H   -1.403896336  -2.782503515   0.875104011
  H   -2.689918421  -0.538177307  -0.877293753
  H   -2.689918421  -0.538177307   0.877293753
  H    0.123733564  -2.917520727   0.000000000
  H   -1.403896336  -2.782503515  -0.875104011
  P    0.605522173   0.006057681   0.000000000
  C   -0.775378357  -0.939308156   0.000000000
  C   -2.108312948  -0.243568109   0.000000000
  C   -0.848369922  -2.434643637   0.000000000
  C    2.050820787  -1.154934369   0.000000000

3.34_0.80_hydrogenchloride--phosphaalkene.wfx


