%nprocs=4
%mem=2GB
#p hf aug-cc-pvdz output=wfx scf=(conver=6) int=(grid=ultrafine)

title

0 1
  H    0.373563736   0.965915426   0.000000000
 Cl    0.159554978   2.242092151   0.000000000
  H   -2.364150776  -1.618311835  -0.883965785
  H   -2.027059830  -0.126367847   0.000000000
  H   -2.364150776  -1.618311835   0.883965785
  P    1.044616178  -1.878368641   0.000000000
  C   -0.456605220  -1.526508098   0.000000000
  C   -1.873836782  -1.207144683   0.000000000

3.35_1.10_hydrogenchloride--phosphaalkyne.wfx


