%nprocs=4
%mem=2GB
#p hf aug-cc-pvdz output=wfx scf=(conver=6) int=(grid=ultrafine)

title

0 1
  H    0.373563736   0.965915426   0.000000000
 Cl    0.159554978   2.242092151   0.000000000
  H   -2.486160312  -1.101169277  -0.883965785
  H   -2.149069366   0.390774711   0.000000000
  H   -2.486160312  -1.101169277   0.883965785
  P    0.922606644  -1.361226083   0.000000000
  C   -0.578614754  -1.009365540   0.000000000
  C   -1.995846316  -0.690002125   0.000000000

3.35_0.90_hydrogenchloride--phosphaalkyne.wfx


