%nprocs=4
%mem=2GB
#p hf aug-cc-pvdz output=wfx scf=(conver=6) int=(grid=ultrafine)

title

0 1
  H    0.000000010   0.579234249   0.000000000
 Cl    0.000000019   1.877115859   0.000000000
  P   -0.000000022  -2.005138028   0.000000000
  H   -0.602085110  -2.745704248   1.042841949
  H   -0.602085110  -2.745704248  -1.042841949
  H    1.204170154  -2.745704262   0.000000000

3.36_1.05_hydrogenchloride--phosphine.wfx


