%nprocs=4
%mem=2GB
#p hf aug-cc-pvdz output=wfx scf=(conver=6) int=(grid=ultrafine)

title

0 1
  H    0.000000000   0.000000000  -2.466595611
 Cl    0.000000000   0.000000000  -3.764119587
  H    0.000000000  -2.328087241   1.263878184
  H    0.000000000   2.328087241   1.263878184
  C    0.000000000  -1.221894466   3.079552442
  C    0.000000000  -1.336395966   1.697771798
  P    0.000000000   0.000000000   0.601006446
  C    0.000000000   1.336395966   1.697771798
  C    0.000000000   1.221894466   3.079552442
  C    0.000000000   0.000000000   3.744209238
  H    0.000000000   2.126635150   3.674529220
  H    0.000000000   0.000000000   4.825124922
  H    0.000000000  -2.126635150   3.674529220

3.37_1.25_hydrogenchloride--phosphorine.wfx


