%nprocs=4
%mem=2GB
#p hf aug-cc-pvdz output=wfx scf=(conver=6) int=(grid=ultrafine)

title

0 1
  H   -0.000000499   1.434839437   0.000000000
 Cl   -0.000001086   2.766485865   0.000000000
  H   -1.864507256  -3.518519881   1.468593928
  H   -0.339584860  -3.518519929   2.349008984
  H   -0.774555413  -4.913040715   1.341571094
  H   -1.864507256  -3.518519881  -1.468593928
  H   -0.774555413  -4.913040715  -1.341571094
  H   -0.339584860  -3.518519929  -2.349008984
  H    2.204095922  -3.518519653   0.880414679
  H    2.204095922  -3.518519653  -0.880414679
  H    1.549114666  -4.913040277   0.000000000
  P    0.000002389  -2.998346913   0.000000000
  C   -0.821111764  -3.826252235   1.422209664
  C   -0.821111764  -3.826252235  -1.422209664
  C    1.642228756  -3.826251923   0.000000000

3.38_2.00_hydrogenchloride--trimethylphosphine.wfx


