%nprocs=4
%mem=2GB
#p hf aug-cc-pvdz output=wfx scf=(conver=6) int=(grid=ultrafine)

title

0 1
  H   -0.000000499   1.434839437   0.000000000
 Cl   -0.000001086   2.766485865   0.000000000
  H   -1.864508556  -1.523586024   1.468593928
  H   -0.339586160  -1.523586072   2.349008984
  H   -0.774556713  -2.918106858   1.341571094
  H   -1.864508556  -1.523586024  -1.468593928
  H   -0.774556713  -2.918106858  -1.341571094
  H   -0.339586160  -1.523586072  -2.349008984
  H    2.204094622  -1.523585796   0.880414679
  H    2.204094622  -1.523585796  -0.880414679
  H    1.549113366  -2.918106420   0.000000000
  P    0.000001089  -1.003413056   0.000000000
  C   -0.821113064  -1.831318378   1.422209664
  C   -0.821113064  -1.831318378  -1.422209664
  C    1.642227456  -1.831318066   0.000000000

3.38_1.10_hydrogenchloride--trimethylphosphine.wfx


