%nprocs=4
%mem=2GB
#p hf aug-cc-pvdz output=wfx scf=(conver=6) int=(grid=ultrafine)

title

0 1
  H   -0.102356188   0.043547349  -0.627319202
 Br   -1.017267085   0.867266820  -1.393091892
  H   -0.658579211  -3.294487006   1.080659303
  H   -0.485879868  -2.289722857   2.519809522
  H   -1.405478859  -1.697807905   1.125080826
  H    2.968453928   0.265410914   0.132062934
  H    0.779368541   1.052055655   3.080852196
  H    1.960135485   1.707337590   0.315284596
  H    2.912961817   1.133462998   1.673126902
  H   -0.584875076   0.046895284   2.578108824
  H   -0.212884699   1.543796656   1.722803066
  P    1.028142481  -1.597166985   0.684067939
  C    1.154734994  -0.028090672   1.279365878
  C    2.317859892   0.804738198   0.817647193
  C    0.224889221   0.673122783   2.218627728
  C   -0.532014464  -2.272179070   1.431742763

3.41_0.95_hydrogenbromide--phosphaalkene.wfx


