%nprocs=4
%mem=2GB
#p hf aug-cc-pvdz output=wfx scf=(conver=6) int=(grid=ultrafine)

title

0 1
  H   -0.337669649   0.185761799   0.000000000
 Br   -0.058551079   1.597089692   0.000000000
  H    2.147124828  -0.609531918   0.000000000
  H    2.441725484  -2.110549024  -0.884014065
  H    2.441725484  -2.110549024   0.884014065
  P   -0.974693602  -2.263241869   0.000000000
  C    0.537592728  -1.962714605   0.000000000
  C    1.963233096  -1.685767416   0.000000000

3.42_0.95_hydrogenbromide--phosphaalkyne.wfx


