%nprocs=4
%mem=2GB
#p hf aug-cc-pvdz output=wfx scf=(conver=6) int=(grid=ultrafine)

title

0 1
  P   -0.000000034   2.716888895   0.000000000
  H   -0.601940341   3.458408379  -1.042591202
  H   -0.601940341   3.458408379   1.042591202
  H    1.203880604   3.458408389   0.000000000

3.43_mon2_hydrogenbromide--phosphine.wfx


