%nprocs=4
%mem=2GB
#p hf aug-cc-pvdz output=wfx scf=(conver=6) int=(grid=ultrafine)

title

0 1
  H   -0.000000000   0.000000000  -1.468387165
 Br   -0.000000000   0.000000000  -2.910894635
  H    0.000000000  -2.327998980   1.538503827
  H   -0.000000000   2.327998980   1.538503827
  C    0.000000000  -1.221858385   3.354143038
  C    0.000000000  -1.336254300   1.972331827
  P   -0.000000000   0.000000000   0.874901007
  C   -0.000000000   1.336254300   1.972331827
  C   -0.000000000   1.221858385   3.354143038
  C   -0.000000000   0.000000000   4.018862795
  H   -0.000000000   2.126642665   3.949088749
  H   -0.000000000   0.000000000   5.099783547
  H    0.000000000  -2.126642665   3.949088749

3.44_0.95_hydrogenbromide--phosphorine.wfx


