%nprocs=4
%mem=2GB
#p hf aug-cc-pvdz output=wfx scf=(conver=6) int=(grid=ultrafine)

title

0 1
  H   -0.000000000   0.000000000  -1.468387165
 Br   -0.000000000   0.000000000  -2.910894635
  H    0.000000000  -2.327998980   1.291841914
  H   -0.000000000   2.327998980   1.291841914
  C    0.000000000  -1.221858385   3.107481125
  C    0.000000000  -1.336254300   1.725669914
  P   -0.000000000   0.000000000   0.628239094
  C   -0.000000000   1.336254300   1.725669914
  C   -0.000000000   1.221858385   3.107481125
  C   -0.000000000   0.000000000   3.772200882
  H   -0.000000000   2.126642665   3.702426836
  H   -0.000000000   0.000000000   4.853121634
  H    0.000000000  -2.126642665   3.702426836

3.44_0.85_hydrogenbromide--phosphorine.wfx


