%nprocs=4
%mem=2GB
#p hf aug-cc-pvdz output=wfx scf=(conver=6) int=(grid=ultrafine)

title

0 1
  H   -1.865098873   2.107209809  -1.469454914
  H   -0.340025297   2.107241989  -2.350012174
  H   -0.779960870   3.506517381  -1.350936644
  H   -1.865098873   2.107209809   1.469454914
  H   -0.779960870   3.506517381   1.350936644
  H   -0.340025297   2.107241989   2.350012174
  H    2.205254227   2.107267828  -0.880516280
  H    2.205254227   2.107267828   0.880516280
  H    1.559995976   3.506546741   0.000000000
  P    0.000072020   1.603707181   0.000000000
  C   -0.822953094   2.419214287  -1.425457210
  C   -0.822953094   2.419214287   1.425457210
  C    1.646050764   2.419245511   0.000000000

3.45_mon2_hydrogenbromide--trimethylphosphine.wfx


