%nprocs=4
%mem=2GB
#p hf aug-cc-pvdz output=wfx scf=(conver=6) int=(grid=ultrafine)

title

0 1
  H    0.000005849  -0.520678153   0.000000000
 Br   -0.000054595  -2.022146666   0.000000000
  H   -1.865065788   3.169402476  -1.469454914
  H   -0.339992212   3.169434656  -2.350012174
  H   -0.779927784   4.568710048  -1.350936644
  H   -1.865065788   3.169402476   1.469454914
  H   -0.779927784   4.568710048   1.350936644
  H   -0.339992212   3.169434656   2.350012174
  H    2.205287312   3.169460495  -0.880516280
  H    2.205287312   3.169460495   0.880516280
  H    1.560029062   4.568739408   0.000000000
  P    0.000105106   2.665899848   0.000000000
  C   -0.822920008   3.481406954  -1.425457210
  C   -0.822920008   3.481406954   1.425457210
  C    1.646083850   3.481438178   0.000000000

3.45_1.50_hydrogenbromide--trimethylphosphine.wfx


