%nprocs=4
%mem=2GB
#p hf aug-cc-pvdz output=wfx scf=(conver=6) int=(grid=ultrafine)

title

0 1
  H    0.270599856   0.207966649  -1.311285943
 Br    0.722742179  -0.587188535  -2.409727359
  P   -0.303657343  -1.240501599   2.450599411
  P    0.475101642   0.781384351   2.069900510
  P   -1.619395341   0.280115642   1.558455013
  P   -1.007569776   0.464132163   3.662633012

3.47_1.25_hydrogenbromide--P4.wfx


