%nprocs=4
%mem=2GB
#p hf aug-cc-pvdz output=wfx scf=(conver=6) int=(grid=ultrafine)

title

0 1
  H    0.270599856   0.207966649  -1.311285943
 Br    0.722742179  -0.587188535  -2.409727359
  P    0.021049483  -1.364868690   1.246371151
  P    0.799808468   0.657017260   0.865672250
  P   -1.294688515   0.155748551   0.354226753
  P   -0.682862950   0.339765072   2.458404752

3.47_0.80_hydrogenbromide--P4.wfx


