%nprocs=4
%mem=2GB
#p hf aug-cc-pvdz output=wfx scf=(conver=6) int=(grid=ultrafine)

title

0 1
  H   -0.000000075   0.857481123  -0.000000000
  I    0.000000184  -0.743998606   0.000000001
  P   -0.000000248   3.092700677  -0.000000002
  H   -0.597250488   3.834755884  -1.034468013
  H   -0.597250488   3.834755879   1.034468013
  H    1.194500744   3.834755431   0.000000000

3.50_0.85_hydrogeniodide--phosphine.wfx


