%nprocs=4
%mem=2GB
#p hf aug-cc-pvdz output=wfx scf=(conver=6) int=(grid=ultrafine)

title

0 1
  H    0.113621135   0.012932231  -0.500806450
  I   -0.206158913   1.113863923  -1.655522928
  H   -0.775515001   1.512820713   1.681127021
  H    0.860523298  -2.665119273   2.915258224
  C   -0.713024419   0.908730480   3.719052119
  C   -0.505276428   0.715420198   2.361956806
  P    0.160626999  -0.717083189   1.656695799
  C    0.434041266  -1.681906952   3.068054727
  C    0.146720544  -1.285035426   4.365095653
  C   -0.402139606  -0.046514156   4.681084500
  H    0.358888930  -1.970948883   5.175899219
  H   -0.595173377   0.183253175   5.719581201
  H   -1.137706476   1.848085740   4.050726695

3.51_0.90_hydrogeniodide--phosphorine.wfx


