%nprocs=4
%mem=2GB
#p hf aug-cc-pvdz output=wfx scf=(conver=6) int=(grid=ultrafine)

title

0 1
  H    0.166980501  -1.663857011  -0.577434831
  H   -1.307679647  -1.710690005  -1.552915824
  H   -1.555531254  -1.970234159   1.099737534
  H   -1.870733027   1.825650691   0.176954143
  H   -2.652568432  -0.869777499   0.267662749
  H   -0.158880503   2.016290092   0.571204166
  H   -1.663850479   0.420154383   2.130387727
  H   -0.048584683  -0.106529606   1.665815160
  S   -0.477564962   0.548319092  -1.333217092
  C   -0.786216809  -1.172602122  -0.766008866
  C   -1.605697103  -1.050827935   0.516025531
  C   -1.037764242   0.142890870   1.282195474
  C   -0.925286857   1.299169112   0.288393446

4.04_mon2_ethyne--tetrahydrothiophene.wfx


