%nprocs=4
%mem=2GB
#p hf aug-cc-pvdz output=wfx scf=(conver=6) int=(grid=ultrafine)

title

0 1
  H   -2.662393053   0.588555531   0.343415729
  H   -2.720357539   1.045031174  -1.372753454
  H   -2.078486346  -0.521651964  -0.919280326
  H    0.983228296   1.520709045  -1.711871265
  H    0.206683527  -0.049507811  -2.013354016
  C   -2.142152017   0.522919844  -0.606009510
  C   -0.764249799   1.103666407  -0.528181126
  S   -0.168983791   1.770112009   0.831901871
  C    0.031529494   1.006682236  -1.792495634
  H   -0.536350231   1.413656076  -2.632250103

4.06_mon2_methanethiol--thioacetone.wfx


