%nprocs=4
%mem=2GB
#p hf aug-cc-pvdz output=wfx scf=(conver=6) int=(grid=ultrafine)

title

0 1
  H    0.389332314   2.344045487  -1.681806636
  H   -1.199874482   1.759198382  -2.182546842
  H    0.102187467   0.605834913  -1.868648370
  P   -1.170584739   1.341958558   1.328922668
  C   -0.748470102   1.455338816  -0.148161286
  C   -0.343502892   1.547672902  -1.539721749
  H    1.832306884  -0.054457084   0.185513030
  H    2.875733000  -1.473863115  -0.006252710
  H    1.803150089  -1.355491469   1.395895215
  H   -0.416992904  -1.422230708  -0.108399126
  C    1.905595630  -1.126667884   0.339289509
  S    0.658886145  -2.017004805  -0.646782721

4.07_1.00_phosphaalkyne--methanethiol.wfx


