%nprocs=4
%mem=2GB
#p hf aug-cc-pvdz output=wfx scf=(conver=6) int=(grid=ultrafine)

title

0 1
  H    0.389332314   2.344045487  -1.681806636
  H   -1.199874482   1.759198382  -2.182546842
  H    0.102187467   0.605834913  -1.868648370
  P   -1.170584739   1.341958558   1.328922668
  C   -0.748470102   1.455338816  -0.148161286
  C   -0.343502892   1.547672902  -1.539721749
  H    1.720967148   0.470110860  -0.058860100
  H    2.764393264  -0.949295171  -0.250625840
  H    1.691810353  -0.830923525   1.151522085
  H   -0.528332640  -0.897662764  -0.352772256
  C    1.794255894  -0.602099940   0.094916379
  S    0.547546409  -1.492436861  -0.891155851

4.07_0.80_phosphaalkyne--methanethiol.wfx


