%nprocs=4
%mem=2GB
#p hf aug-cc-pvdz output=wfx scf=(conver=6) int=(grid=ultrafine)

title

0 1
  H    0.862146476  -2.403402091   0.083878413
  H    0.572324414  -1.260792445   1.398871609
  H    2.590376203  -0.749333043  -0.295642894
  H   -0.607072243   1.092799001  -1.481374552
  H    1.511829790   0.575171767   0.157078852
  H   -0.930937977  -0.202247798  -2.646878936
  H    1.607563397   0.586588763  -2.301932272
  H    1.269945855  -1.143095239  -2.351633348
  S   -1.064776962  -1.010025912  -0.369807890
  C    0.604144271  -1.372528660   0.318241639
  C    1.563019151  -0.388235809  -0.349385171
  C    1.087034071  -0.224196479  -1.792072442
  C   -0.413462831   0.050765207  -1.725490090

4.12_mon2_methylamine--tetrahydrothiophene.wfx


