%nprocs=4
%mem=2GB
#p hf aug-cc-pvdz output=wfx scf=(conver=6) int=(grid=ultrafine)

title

0 1
  H    1.237268937  -2.686222062  -1.379194977
  H    1.179042378  -0.901054067  -1.315483392
  H    0.005488432  -1.806417420  -2.299403070
  H    0.005488432  -1.806417420   2.299403070
  H    1.179042378  -0.901054067   1.315483392
  H    1.237268937  -2.686222062   1.379194977
  C    0.589784679  -1.812145321  -1.382642828
  S   -0.579681235  -1.891328029   0.000000000
  C    0.589784679  -1.812145321   1.382642828

4.16_mon2_aceticacid--dimethylsulfide.wfx


