%nprocs=4
%mem=2GB
#p hf aug-cc-pvdz output=wfx scf=(conver=6) int=(grid=ultrafine)

title

0 1
  C    0.159201316   2.456646091   0.000000000
  O    1.218853156   1.876182366   0.000000000
  O   -1.025331881   1.833227073   0.000000000
  H   -0.892264099   0.858019475   0.000000000
  C    0.003809343   3.952775178   0.000000000
  H    0.980230339   4.424223398   0.000000000
  H   -0.562174650   4.264126803  -0.876954421
  H   -0.562174650   4.264126803   0.876954421

4.17_mon1_aceticacid--thioacetone.wfx


