%nprocs=4
%mem=2GB
#p hf aug-cc-pvdz output=wfx scf=(conver=6) int=(grid=ultrafine)

title

0 1
 Br   -0.030254314  -0.999634660   0.000000000
  O    0.761026747  -0.504663159  -1.322598332
  O    0.761026747  -0.504663159   1.322598332
  O   -1.551989949  -0.015483186   0.000000000
  H   -1.249893375   0.926211885   0.000000000
  H    1.109106472   2.664709276   0.967089121
  H    1.109106472   2.664709276  -0.967089121
  S    0.412590079   3.284300004   0.000000000

4.18_1.25_bromicacid--sulfane.wfx


