%nprocs=4
%mem=2GB
#p hf aug-cc-pvdz output=wfx scf=(conver=6) int=(grid=ultrafine)

title

0 1
  O   -0.429259515   1.229680464  -2.503808256
  H   -0.361560680   1.368907717  -1.551446896
  C   -1.379910912   0.201709207  -2.735171401
  H   -1.418551040   0.035079801  -3.809506665
  H   -1.096776819  -0.735987345  -2.248429738
  H   -2.379847977   0.483346448  -2.392944178
  H   -0.572728735  -2.541749197   2.415232838
  H   -0.107296108  -0.970968710   3.103915431
  H    1.059539385  -1.909368616   2.133193578
  H    1.687291782  -0.045980433  -1.284707532
  H    2.501502998  -0.405143838   0.269254271
  H    2.560899640   1.231115555  -0.415152509
  C    0.014715780  -1.638477768   2.256183013
  S   -0.642830694  -0.870296351   0.742695041
  S    0.452641988   0.857579609   0.591209904
  C    1.951177857   0.335560164  -0.303414782

4.19_0.95_methanol--dimethyldisulfide.wfx


