%nprocs=4
%mem=2GB
#p hf aug-cc-pvdz output=wfx scf=(conver=6) int=(grid=ultrafine)

title

0 1
  O   -0.429259515   1.229680464  -2.503808256
  H   -0.361560680   1.368907717  -1.551446896
  C   -1.379910912   0.201709207  -2.735171401
  H   -1.418551040   0.035079801  -3.809506665
  H   -1.096776819  -0.735987345  -2.248429738
  H   -2.379847977   0.483346448  -2.392944178
  H   -0.315612103  -2.703221232   3.091861302
  H    0.149820524  -1.132440744   3.780543895
  H    1.316656017  -2.070840650   2.809822042
  H    1.944408414  -0.207452468  -0.608079068
  H    2.758619630  -0.566615872   0.945882735
  H    2.818016272   1.069643520   0.261475955
  C    0.271832412  -1.799949802   2.932811477
  S   -0.385714062  -1.031768386   1.419323505
  S    0.709758620   0.696107574   1.267838368
  C    2.208294489   0.174088130   0.373213682

4.19_1.25_methanol--dimethyldisulfide.wfx


