%nprocs=4
%mem=2GB
#p hf aug-cc-pvdz output=wfx scf=(conver=6) int=(grid=ultrafine)

title

0 1
  O   -0.585825351  -1.659854852  -1.573484052
  H   -0.074872883  -1.347975847  -0.812756306
  H   -0.158298207  -2.472368998  -1.852017965
  H   -1.218805738   0.756703025  -0.897893361
  H    0.280921423   1.684090691  -1.011063924
  H   -0.881321552   2.073906678   0.264846975
  H   -0.581635821  -0.290941599   1.492654361
  C   -0.452957789   1.269834696  -0.325304394
  S    0.457328442   0.099580822   0.739152459

4.21_0.90_water--methanethiol.wfx


