%nprocs=4
%mem=2GB
#p hf aug-cc-pvdz output=wfx scf=(conver=6) int=(grid=ultrafine)

title

0 1
  O   -0.585825351  -1.659854852  -1.573484052
  H   -0.074872883  -1.347975847  -0.812756306
  H   -0.158298207  -2.472368998  -1.852017965
  H   -1.011838556   1.319641730  -0.294373286
  H    0.487888606   2.247029396  -0.407543849
  H   -0.674354370   2.636845383   0.868367050
  H   -0.374668638   0.271997106   2.096174436
  C   -0.245990606   1.832773401   0.278215681
  S    0.664295624   0.662519527   1.342672534

4.21_1.25_water--methanethiol.wfx


