%nprocs=4
%mem=2GB
#p hf aug-cc-pvdz output=wfx scf=(conver=6) int=(grid=ultrafine)

title

0 1
  O   -0.585825351  -1.659854852  -1.573484052
  H   -0.074872883  -1.347975847  -0.812756306
  H   -0.158298207  -2.472368998  -1.852017965
  H   -1.130105517   0.997962470  -0.639241900
  H    0.369621644   1.925350136  -0.752412463
  H   -0.792621331   2.315166123   0.523498436
  H   -0.492935600  -0.049682154   1.751305822
  C   -0.364257568   1.511094141  -0.066652933
  S    0.546028663   0.340840267   0.997803920

4.21_1.05_water--methanethiol.wfx


