%nprocs=4
%mem=2GB
#p hf aug-cc-pvdz output=wfx scf=(conver=6) int=(grid=ultrafine)

title

0 1
  H   -1.159672257   0.917542655  -0.725459054
  H    0.340054904   1.844930321  -0.838629617
  H   -0.822188071   2.234746308   0.437281282
  H   -0.522502340  -0.130101969   1.665088668
  C   -0.393824308   1.430674326  -0.152870087
  S    0.516461923   0.260420452   0.911586766

4.21_mon2_water--methanethiol.wfx


