%nprocs=4
%mem=2GB
#p hf aug-cc-pvdz output=wfx scf=(conver=6) int=(grid=ultrafine)

title

0 1
  H   -2.847629118   0.620859782   0.530137946
  H   -1.797040672  -0.706335269  -0.005779274
  H   -2.423522743   0.486072735  -1.186404338
  H    0.392818775   2.839142672  -2.441893411
  H   -0.621903606   1.500620885  -3.042951230
  H    1.114971705   1.527320862  -3.399476197
  C   -2.066244782   0.332667928  -0.172132025
  S   -0.647683568   1.416096886   0.184593150
  S    0.766315538   0.811325699  -1.169855777
  C    0.356239025   1.775697978  -2.658468934

4.22_mon2_methanethiol--dimethyldisulfide.wfx


