%nprocs=4
%mem=2GB
#p hf aug-cc-pvdz output=wfx scf=(conver=6) int=(grid=ultrafine)

title

0 1
  H    0.940216132   0.774574813  -0.419266955
  H    0.912651072   2.631086310  -1.014683435
  S    1.346251352   1.970156198   0.068247852
  H   -1.248946810  -2.420445013   1.813990637
  H   -0.233062808  -0.962709439   1.698850898
  H    0.463122954  -2.563076407   1.382863144
  H   -2.592392179  -0.602704257  -1.436471306
  H   -2.008847196   0.195133379   0.035995255
  H   -3.057160984  -1.243516156   0.147624540
  C   -0.427413847  -1.948344317   1.279015676
  S   -0.797061572  -1.830884542  -0.489683694
  C   -2.258400005  -0.763818564  -0.414469528

4.26_1.25_sulfane--dimethylsulfide.wfx


