%nprocs=4
%mem=2GB
#p hf aug-cc-pvdz output=wfx scf=(conver=6) int=(grid=ultrafine)

title

0 1
  H    0.940216132   0.774574813  -0.419266955
  H    0.912651072   2.631086310  -1.014683435
  S    1.346251352   1.970156198   0.068247852
  H   -0.832000161  -1.795134768   1.830890655
  H    0.183883841  -0.337399194   1.715750916
  H    0.880069603  -1.937766162   1.399763162
  H   -2.175445530   0.022605988  -1.419571288
  H   -1.591900547   0.820443624   0.052895273
  H   -2.640214335  -0.618205911   0.164524558
  C   -0.010467198  -1.323034072   1.295915694
  S   -0.380114923  -1.205574297  -0.472783676
  C   -1.841453356  -0.138508319  -0.397569510

4.26_0.95_sulfane--dimethylsulfide.wfx


