%nprocs=4
%mem=2GB
#p hf aug-cc-pvdz output=wfx scf=(conver=6) int=(grid=ultrafine)

title

0 1
  H    0.531398318   0.644987156  -0.290550534
  H    2.238797718   0.672661953   0.638139856
  S    1.602737688   1.457777873  -0.243491684
  H   -1.449321179  -0.184492650   1.096768080
  H   -0.681350459  -1.700051741   0.160593374
  S   -1.295815032  -0.558103306  -0.182324468

4.27_0.80_sulfane--sulfane.wfx


