%nprocs=4
%mem=2GB
#p hf aug-cc-pvdz output=wfx scf=(conver=6) int=(grid=ultrafine)

title

0 1
  H    1.259279987   1.114064871  -0.282655519
  H    2.282790173   2.734183409  -0.675778468
  S    1.071104189   2.451633102  -0.176419536
  H   -0.029010672  -1.237872784   1.813598520
  H   -0.118829436  -2.981086508   2.094607214
  H   -2.421812042  -1.626307530   1.905599592
  H   -1.439224706  -2.949478610  -1.649898464
  H   -2.274432526  -3.144533396   1.023293016
  H   -0.734977026  -1.363676468  -1.993422254
  H   -3.047258496  -1.470284488  -0.619583934
  H   -1.793999856  -0.349059052  -0.106419550
  S    0.445310316  -2.491987516  -0.204061526
  C   -0.384586592  -2.183197006   1.406721034
  C   -1.880143346  -2.130621748   1.105251768
  C   -2.030828636  -1.406086814  -0.231407298
  C   -1.036625112  -2.043988414  -1.201403092

4.28_1.50_sulfane--tetrahydrothiophene.wfx


