%nprocs=4
%mem=2GB
#p hf aug-cc-pvdz output=wfx scf=(conver=6) int=(grid=ultrafine)

title

0 1
  H    1.897543098  -1.838121818   2.298999258
  H    0.349458259  -2.482080102   1.712662598
  H    0.386873818  -1.022261833   2.739882295
  H   -0.612412873   2.088284996   0.581380873
  H   -1.336300612   1.059074059   1.849970469
  H   -2.293512898   1.530153095   0.430423623
  C    0.896945659  -1.576948127   1.957507499
  S    1.131081492  -0.551736005   0.472567164
  S   -0.798762613  -0.214450880  -0.142381628
  C   -1.297251065   1.271547102   0.785817883

4.29_mon2_hydrogenfluoride--dimethyldisulfide.wfx


