%nprocs=4
%mem=2GB
#p hf aug-cc-pvdz output=wfx scf=(conver=6) int=(grid=ultrafine)

title

0 1
  H    0.234950421   1.503189900   0.000000000
  F   -0.110872131   2.385641816   0.000000000
  H   -1.430709248  -0.068123266  -1.349885935
  H   -0.866593030  -1.760896347  -1.377367227
  H   -0.004402305  -0.517556800  -2.300256732
  H   -0.004402305  -0.517556800   2.300256732
  H   -0.866593030  -1.760896347   1.377367227
  H   -1.430709248  -0.068123266   1.349885935
  C   -0.559377899  -0.717685480  -1.387514538
  S    0.554591982  -0.373761581   0.000000000
  C   -0.559377899  -0.717685480   1.387514538

4.30_0.90_hydrogenfluoride--dimethylsulfide.wfx


