%nprocs=4
%mem=2GB
#p hf aug-cc-pvdz output=wfx scf=(conver=6) int=(grid=ultrafine)

title

0 1
  H   -0.227014778   0.166887111  -1.353692766
  F   -0.474200276   0.715088217  -2.079126833
  H   -0.716086273   1.610337647   0.712213176
  H    1.026713215   1.450989324   0.968149017
  H   -0.090906270   0.766936725   2.158371053
  H   -1.100076854  -1.016168527   0.403856193
  C    0.064318315   0.965427625   1.102744173
  S    0.150749522  -0.595143016   0.161695066

4.31_0.80_hydrogenfluoride--methanethiol.wfx


