%nprocs=4
%mem=2GB
#p hf aug-cc-pvdz output=wfx scf=(conver=6) int=(grid=ultrafine)

title

0 1
  H   -0.607657650   0.256546982   0.016152236
  F   -1.168363226   0.439472991  -0.706812055
  S    0.708336949   0.118750955   1.744797407
  P    0.262944205   2.095157557   2.362982250
  S   -2.356898814  -0.084002110   2.759789293
  S    0.087887547  -0.222159732   4.885958193
  P   -0.170853835   1.846383016   4.558457181
  P   -1.866173698   1.941610940   3.078975412
  P   -0.507353635  -1.068290230   3.040233481

4.32_0.95_hydrogenfluoride--P4S3.wfx


