%nprocs=4
%mem=2GB
#p hf aug-cc-pvdz output=wfx scf=(conver=6) int=(grid=ultrafine)

title

0 1
  H   -0.328148919   0.674631615  -1.759528174
  F   -0.332598602   1.541791953  -2.147664879
  H   -1.603417269  -0.890233179   1.406169355
  H   -2.076756884   0.372639400   0.260062487
  H   -0.687739115   1.126247727   2.419732557
  H    1.827023724   0.353434192  -0.474409803
  H   -0.189739952   1.756832949   0.849814509
  H    2.050320096  -1.268193284   0.196080628
  H    1.844082281   0.811889357   1.896261510
  H    0.986452068  -0.680651122   2.265559487
  S   -0.220643671  -0.927286910  -0.577648503
  C   -1.232288092  -0.121563356   0.731848818
  C   -0.292656292   0.847804832   1.442843192
  C    1.057685898   0.141132123   1.551464527
  C    1.387160853  -0.408725460   0.163819407

4.34_0.95_hydrogenfluoride--tetrahydrothiophene.wfx


