%nprocs=4
%mem=2GB
#p hf aug-cc-pvdz output=wfx scf=(conver=6) int=(grid=ultrafine)

title

0 1
  H   -0.191797763  -1.955532752   0.000000000
  F    0.331167063  -2.745939304   0.000000000
  H   -0.810729298   2.462225254   0.000000000
  H    0.734398278   2.551699331   0.874524845
  H    0.734398278   2.551699331  -0.874524845
  H    1.795174913  -0.958935382   0.000000000
  H    2.282151008   0.509565064  -0.873839624
  C    0.224780780   2.139863313   0.000000000
  C    0.350337052   0.648424314   0.000000000
  S   -0.967819653  -0.311730139   0.000000000
  C    1.750626593   0.124113877   0.000000000
  H    2.282151008   0.509565064   0.873839624

4.35_0.85_hydrogenfluoride--thioacetone.wfx


