%nprocs=4
%mem=2GB
#p hf aug-cc-pvdz output=wfx scf=(conver=6) int=(grid=ultrafine)

title

0 1
  H   -0.260682653   0.626538723  -1.615802087
 Cl    0.105810980   1.516702620  -2.497902669
  H    1.648728242  -2.305839885   3.222784317
  H    0.050389652  -2.924435754   2.755185852
  H    0.195603078  -1.377779552   3.634555544
  H   -0.747515136   1.566920199   1.220799125
  H   -1.436965132   0.691934911   2.618116816
  H   -2.454137184   1.070005457   1.213021584
  C    0.648671538  -2.028758970   2.892274501
  S    0.870305048  -1.161014981   1.307975589
  S   -1.061412506  -0.781980816   0.728058867
  C   -1.449854210   0.802092668   1.537908413

4.36_1.25_hydrogenchloride--dimethyldisulfide.wfx


