%nprocs=4
%mem=2GB
#p hf aug-cc-pvdz output=wfx scf=(conver=6) int=(grid=ultrafine)

title

0 1
  H   -0.091693319  -0.017074137  -1.031473849
 Cl    0.643230476  -0.446203689  -2.046058423
  H    1.178698184   1.036172342   1.788660427
  H    0.526734820   1.472627984   3.392100892
  H    0.288028496   2.552799492   2.007256471
  H   -1.764653118  -1.554823694   2.257726206
  H   -0.692435894  -0.967066878   3.540863358
  H   -0.030207613  -1.382969244   1.936166624
  C    0.357361872   1.513844170   2.318631327
  S   -1.216305492   0.723383816   1.895196794
  C   -0.879381140  -0.961005752   2.469537992

4.37_1.50_hydrogenchloride--dimethylsulfide.wfx


