%nprocs=4
%mem=2GB
#p hf aug-cc-pvdz output=wfx scf=(conver=6) int=(grid=ultrafine)

title

0 1
  H   -0.091693319  -0.017074137  -1.031473849
 Cl    0.643230476  -0.446203689  -2.046058423
  H    0.803827459   1.282991659   2.764217308
  H    0.151864095   1.719447302   4.367657773
  H   -0.086842229   2.799618810   2.982813352
  H   -2.139523842  -1.308004377   3.233283087
  H   -1.067306618  -0.720247561   4.516420239
  H   -0.405078337  -1.136149927   2.911723505
  C   -0.017508853   1.760663487   3.294188208
  S   -1.591176217   0.970203133   2.870753675
  C   -1.254251864  -0.714186435   3.445094873

4.37_2.00_hydrogenchloride--dimethylsulfide.wfx


