%nprocs=4
%mem=2GB
#p hf aug-cc-pvdz output=wfx scf=(conver=6) int=(grid=ultrafine)

title

0 1
  H   -0.713230529   0.360813909  -0.389639872
 Cl   -0.975746180   1.504326327  -0.971284297
  H    1.819155317   0.339252342   0.703590070
  H    2.344260696  -1.066577890  -0.232095352
  H    2.576510244  -1.057229101   1.522362514
  H   -0.057128451  -1.038207810   2.037292150
  C    1.923403513  -0.741316994   0.715183242
  S    0.294699448  -1.550344855   0.848042286

4.38_1.10_hydrogenchloride--methanethiol.wfx


