%nprocs=4
%mem=2GB
#p hf aug-cc-pvdz output=wfx scf=(conver=6) int=(grid=ultrafine)

title

0 1
  H   -0.075747714   0.516968121   0.000000000
 Cl    0.002059029   1.812868211   0.000000000
  H    0.867352253  -1.571723162   0.970324615
  H    0.867352253  -1.571723162  -0.970324615
  S   -0.057894858  -1.518207733   0.000000000

4.40_0.85_hydrogenchloride--sulfane.wfx


