%nprocs=4
%mem=2GB
#p hf aug-cc-pvdz output=wfx scf=(conver=6) int=(grid=ultrafine)

title

0 1
  H   -0.339407309   1.030904839   1.979206351
  H    1.349188551   0.969927874   2.502086628
  H    0.079131094   0.426735923   3.608736593
  H   -0.631590500  -1.635164866   2.049350467
  C    0.384092862   0.475519342   2.568344088
  S    0.626583984  -1.197862134   1.887701408

4.45_mon2_hydrogenbromide--methanethiol.wfx


