%nprocs=4
%mem=2GB
#p hf aug-cc-pvdz output=wfx scf=(conver=6) int=(grid=ultrafine)

title

0 1
  H    0.132061490  -0.386054295  -0.144426513
 Br   -0.319777356   0.407793335  -1.282933983
  H   -0.413585683   1.152676015   1.674387163
  H    1.275010177   1.091699050   2.197267440
  H    0.004952720   0.548507099   3.303917405
  H   -0.705768874  -1.513393690   1.744531279
  C    0.309914488   0.597290518   2.263524900
  S    0.552405610  -1.076090958   1.582882220

4.45_0.85_hydrogenbromide--methanethiol.wfx


