%nprocs=4
%mem=2GB
#p hf aug-cc-pvdz output=wfx scf=(conver=6) int=(grid=ultrafine)

title

0 1
  H    0.132061490  -0.386054295  -0.144426513
 Br   -0.319777356   0.407793335  -1.282933983
  H   -0.092146062   0.625000920   2.995270312
  H    1.596449798   0.564023954   3.518150588
  H    0.326392341   0.020832004   4.624800554
  H   -0.384329253  -2.041068786   3.065414428
  C    0.631354109   0.069615422   3.584408048
  S    0.873845231  -1.603766054   2.903765368

4.45_1.50_hydrogenbromide--methanethiol.wfx


