%nprocs=4
%mem=2GB
#p hf aug-cc-pvdz output=wfx scf=(conver=6) int=(grid=ultrafine)

title

0 1
  S    0.935271718  -0.033937645   2.011397834
  P    0.398036460   1.976033773   2.387239726
  S   -2.210765492  -0.223306172   2.738860402
  S    0.002060389  -0.083084043   5.099313112
  P   -0.258627179   1.934681962   4.540371048
  P   -1.790810281   1.837554829   2.890819787
  P   -0.376131862  -1.119322326   3.292494740

4.46_mon2_hydrogenbromide--P4S3.wfx


