%nprocs=4
%mem=2GB
#p hf aug-cc-pvdz output=wfx scf=(conver=6) int=(grid=ultrafine)

title

0 1
  H    0.089826685  -0.279470572   0.000000000
 Br   -0.000793002   1.161288587   0.000000000
  H   -0.876108404  -2.948672323   0.970143953
  H   -0.876108404  -2.948672323  -0.970143953
  S    0.050565088  -2.927688343   0.000000000

4.47_1.10_hydrogenbromide--sulfane.wfx


