%nprocs=4
%mem=2GB
#p hf aug-cc-pvdz output=wfx scf=(conver=6) int=(grid=ultrafine)

title

0 1
  H    0.089826685  -0.279470572   0.000000000
 Br   -0.000793002   1.161288587   0.000000000
  H   -0.870754550  -2.587551718   0.970143953
  H   -0.870754550  -2.587551718  -0.970143953
  S    0.055918942  -2.566567738   0.000000000

4.47_0.95_hydrogenbromide--sulfane.wfx


