%nprocs=4
%mem=2GB
#p hf aug-cc-pvdz output=wfx scf=(conver=6) int=(grid=ultrafine)

title

0 1
  H    0.089826685  -0.279470572   0.000000000
 Br   -0.000793002   1.161288587   0.000000000
  H   -0.908231529  -5.115395954   0.970143953
  H   -0.908231529  -5.115395954  -0.970143953
  S    0.018441963  -5.094411974   0.000000000

4.47_2.00_hydrogenbromide--sulfane.wfx


