%nprocs=4
%mem=2GB
#p hf aug-cc-pvdz output=wfx scf=(conver=6) int=(grid=ultrafine)

title

0 1
  H    1.558173257  -0.595323773   0.000000000
  H    2.162923270  -2.017233663   0.874089504
  H    2.162923270  -2.017233663  -0.874089504
  H   -0.757539455  -4.219132262   0.000000000
  H    0.789681348  -4.180062475  -0.874715038
  C    1.601360677  -1.678107004   0.000000000
  C    0.248462697  -2.315052101   0.000000000
  S   -1.142801665  -1.466642896   0.000000000
  C    0.247734020  -3.812117141   0.000000000
  H    0.789681348  -4.180062475   0.874715038

4.48_mon2_hydrogenbromide--thioacetone.wfx


