%nprocs=4
%mem=2GB
#p hf aug-cc-pvdz output=wfx scf=(conver=6) int=(grid=ultrafine)

title

0 1
  H    0.540227290   0.348824840   0.000000000
  I   -0.099753736  -1.210693140   0.000000000
  H   -1.102601931   1.604609893   1.355874607
  H   -0.916319084   3.381244182   1.357877629
  H    0.192159927   2.365880174   2.298518063
  H    0.192159927   2.365880174  -2.298518063
  H   -0.916319084   3.381244182  -1.357877629
  H   -1.102601931   1.604609893  -1.355874607
  C   -0.392388787   2.428892291   1.384558962
  S    0.765620220   2.307780937   0.000000000
  C   -0.392388787   2.428892291  -1.384558962

4.50_0.95_hydrogeniodide--dimethylsulfide.wfx


