%nprocs=4
%mem=2GB
#p hf aug-cc-pvdz output=wfx scf=(conver=6) int=(grid=ultrafine)

title

0 1
  H   -0.146792520  -0.151826058  -0.121559827
  I   -0.961031022  -0.352091381  -1.542289963
  H   -1.121874918  -1.256128379   3.625990396
  H   -0.257636207  -2.321366928   2.507679990
  H   -1.540743178  -1.272872902   1.888554181
  H   -0.204665980   0.980958159   2.478837865
  C   -0.737661746  -1.352724015   2.615577313
  S    0.554428418  -0.109680511   2.293440475

4.51_1.10_hydrogeniodide--methanethiol.wfx


