%nprocs=4
%mem=2GB
#p hf aug-cc-pvdz output=wfx scf=(conver=6) int=(grid=ultrafine)

title

0 1
  H   -0.498514346   0.106069306  -0.084445378
  I   -1.345984336   0.891207522  -1.219795607
  S    1.322615175  -0.202136612   2.645239127
  P    0.840304756   1.837506998   2.906936004
  S   -1.851678688  -0.255027572   3.265168325
  S    0.277101574  -0.073557918   5.696948722
  P    0.106756508   1.922207598   5.034467047
  P   -1.367734242   1.796145268   3.334610586
  P   -0.066577113  -1.181199464   3.925232154

4.52_1.25_hydrogeniodide--P4S3.wfx


