%nprocs=4
%mem=2GB
#p hf aug-cc-pvdz output=wfx scf=(conver=6) int=(grid=ultrafine)

title

0 1
  H   -0.498514346   0.106069306  -0.084445378
  I   -1.345984336   0.891207522  -1.219795607
  S    0.667008548  -0.091182481   1.662552705
  P    0.184698129   1.948461129   1.924249582
  S   -2.507285315  -0.144073442   2.282481903
  S   -0.378505053   0.037396213   4.714262300
  P   -0.548850119   2.033161729   4.051780625
  P   -2.023340869   1.907099398   2.351924164
  P   -0.722183740  -1.070245333   2.942545732

4.52_0.80_hydrogeniodide--P4S3.wfx


