%nprocs=4
%mem=2GB
#p hf aug-cc-pvdz output=wfx scf=(conver=6) int=(grid=ultrafine)

title

0 1
  P   -0.111200574  -0.330674500   0.719926172
  F    0.347956117  -1.317328991   1.913499910
  F    0.277886972  -1.330078005  -0.490705000
  H    1.098911510   0.412279234   0.707220533

5.03_mon2_dimethylsulfoxide--phosphineF2.wfx


