%nprocs=4
%mem=2GB
#p hf aug-cc-pvdz output=wfx scf=(conver=6) int=(grid=ultrafine)

title

0 1
  H   -0.994649908   2.369581588   0.893892902
  H   -0.994649908   2.369581588  -0.893892902
  H   -1.294146626   0.850677648   0.000000000
  C   -0.756670965   1.796844155   0.000000000
  F    0.613683983   1.528530414   0.000000000

5.04_mon2_ethyne--methylfluoride.wfx


