%nprocs=4
%mem=2GB
#p hf aug-cc-pvdz output=wfx scf=(conver=6) int=(grid=ultrafine)

title

0 1
  C    0.315950133  -1.637450299   0.000000000
  H    0.815403366  -0.697738209   0.000000000
  C   -0.259427185  -2.686214375   0.000000000
  H   -0.763906337  -3.619848858   0.000000000
  H   -1.004735877   2.480895019   0.893892902
  H   -1.004735877   2.480895019  -0.893892902
  H   -1.304232595   0.961991079   0.000000000
  C   -0.766756934   1.908157586   0.000000000
  F    0.603598014   1.639843845   0.000000000

5.04_1.05_ethyne--methylfluoride.wfx


