%nprocs=4
%mem=2GB
#p hf aug-cc-pvdz output=wfx scf=(conver=6) int=(grid=ultrafine)

title

0 1
  H   -1.014421485   1.452319312   0.352016597
  H   -1.087078710   2.673861630  -0.956261946
  H   -2.538694584   1.718255163  -0.545233696
  C   -1.452228636   1.708431284  -0.610528968
  F   -1.074311313   0.735248915  -1.537109809

5.06_mon2_methanethiol--methylfluoride.wfx


