%nprocs=4
%mem=2GB
#p hf aug-cc-pvdz output=wfx scf=(conver=6) int=(grid=ultrafine)

title

0 1
  H   -1.724348231  -0.027355360  -1.474026193
  H   -1.296435492  -1.415159708  -2.484097898
  H   -1.572301525   0.160027650  -3.243538945
  H    0.527790206   1.283050936  -1.949835639
  C   -1.185008230  -0.341291707  -2.362021642
  S    0.601246922  -0.037729081  -2.172892147
  P    0.694021212  -1.051149224   1.454738083
  F   -0.343583330   0.170063496   1.534628798
  F    0.773142253  -1.358685238   3.029915297
  H    1.872066939  -0.249082922   1.416989746

5.07_1.25_methanethiol--phosphineF2.wfx


