%nprocs=4
%mem=2GB
#p hf aug-cc-pvdz output=wfx scf=(conver=6) int=(grid=ultrafine)

title

0 1
  H    0.494811376   0.550697331  -2.503591792
  H   -1.088910315   0.712912164  -3.299676259
  H   -0.004417460   2.148124526  -3.136713735
  C   -0.340983370   1.217048807  -2.699503409
  N   -0.946875580   1.516628094  -1.367688214
  O   -0.639297514   2.558880177  -0.825116373
  O   -1.687345249   0.667201539  -0.894201454
  P   -0.043616953  -0.684723290   0.708431384
  F    1.084855838  -1.007369757   1.795352201
  F    0.924396623  -0.306008846  -0.519930429
  H   -0.258927252   0.660437922   1.127509327

5.09_0.85_nitromethane--phosphineF2.wfx


