%nprocs=4
%mem=2GB
#p hf aug-cc-pvdz output=wfx scf=(conver=6) int=(grid=ultrafine)

title

0 1
  P    0.188286309  -0.925663780   1.290273651
  F    0.099258123   0.494336624   2.029880358
  F    0.934545447  -1.714055863   2.478995494
  H    1.373191159  -0.647933263   0.547717209

5.12_mon2_trimethylphosphite--phosphineF2.wfx


