%nprocs=4
%mem=2GB
#p hf aug-cc-pvdz output=wfx scf=(conver=6) int=(grid=ultrafine)

title

0 1
  P    0.327900750  -0.337353224   1.202680108
  F    0.491975622   1.263478015   1.407532060
  F    1.122638403  -0.761097740   2.541287662
  H    1.446118790  -0.495529753   0.341591126

5.13_mon2_acetamide--phosphineF2.wfx


