%nprocs=4
%mem=2GB
#p hf aug-cc-pvdz output=wfx scf=(conver=6) int=(grid=ultrafine)

title

0 1
  C   -0.278988201   2.423003188   0.037584958
  O    0.654013574   1.687386775  -0.150914895
  O   -1.536810656   1.964972160   0.234945272
  H   -1.500782065   0.999108011   0.190650171
  C   -0.220997135   3.922032347   0.086783040
  H    0.797967130   4.253401615  -0.077686712
  H   -0.879018504   4.341780335  -0.672797910
  H   -0.577509032   4.272971766   1.054237584

5.21_mon1_aceticacid--tetraFmethane.wfx


