%nprocs=4
%mem=2GB
#p hf aug-cc-pvdz output=wfx scf=(conver=6) int=(grid=ultrafine)

title

0 1
  O   -0.651763456   0.859061897  -0.821633806
  H   -0.380024496  -0.015871852  -0.527350537
  C   -0.239226524   1.045332194  -2.165698346
  H   -0.547568122   2.045796722  -2.461358096
  H    0.846772222   0.972653740  -2.276617859
  H   -0.709606952   0.326408629  -2.842774540
  H    0.432651671   0.278580376   2.068491920
  H   -0.006777962  -1.107008950   3.113500842
  H    1.705706989  -0.819253622   2.685668800
  C    0.674710764  -0.743738064   2.347922904
  F    0.527575605  -1.553729030   1.212550976

5.23_1.25_methanol--methylfluoride.wfx


