%nprocs=4
%mem=2GB
#p hf aug-cc-pvdz output=wfx scf=(conver=6) int=(grid=ultrafine)

title

0 1
  H    0.251131651   0.586151811   1.720511618
  H   -0.188297982  -0.799437515   2.765520540
  H    1.524186969  -0.511682186   2.337688498
  C    0.493190744  -0.436166628   1.999942601
  F    0.346055585  -1.246157594   0.864570673

5.23_mon2_methanol--methylfluoride.wfx


