%nprocs=4
%mem=2GB
#p hf aug-cc-pvdz output=wfx scf=(conver=6) int=(grid=ultrafine)

title

0 1
  P    0.514991435  -1.419733504   1.208518623
  F   -0.937197828  -0.764066564   1.497742387
  F    1.199958724  -1.044364583   2.600122761
  H    1.017674902  -0.294552988   0.494757057

5.25_mon2_phosphoricacid--phosphineF2.wfx


