%nprocs=4
%mem=2GB
#p hf aug-cc-pvdz output=wfx scf=(conver=6) int=(grid=ultrafine)

title

0 1
  O    0.080066228  -1.376853631  -1.389495123
  H    0.215590518  -1.145739031  -0.463594959
  H    0.576612278  -2.185512108  -1.529153525
  H   -1.313393752   2.295538764   1.524539208
  H    0.377979446   2.841359796   1.323563598
  H   -0.406538085   1.867846880   0.042082404
  C   -0.337775001   2.050602746   1.111427470
  F    0.115146663   0.875787016   1.729055830

5.26_1.50_water--methylfluoride.wfx


