%nprocs=4
%mem=2GB
#p hf aug-cc-pvdz output=wfx scf=(conver=6) int=(grid=ultrafine)

title

0 1
  P    0.674172341  -1.071456855   2.057048137
  F   -0.497277445  -0.003655152   2.045633179
  F    1.874783963  -0.141722648   1.602162935
  H    0.403263779  -1.592580536   0.768694448
  F    0.181263712   0.608960679  -0.974382078
  F    0.382107151   1.852360009  -0.370578121

5.27_0.95_phosphineF2--F2.wfx


