%nprocs=4
%mem=2GB
#p hf aug-cc-pvdz output=wfx scf=(conver=6) int=(grid=ultrafine)

title

0 1
  H   -0.125894687   1.650952610   0.000000000
  F    0.218483751   2.513324458   0.000000000
  P    0.241475134  -1.585964273   0.000000000
  H   -0.460388497  -2.279367522  -1.022721997
  H   -0.460388497  -2.279367522   1.022721997
  F   -0.699285889  -0.245091901   0.000000000

5.29_1.10_F2--phosphine.wfx


