%nprocs=4
%mem=2GB
#p hf aug-cc-pvdz output=wfx scf=(conver=6) int=(grid=ultrafine)

title

0 1
  H   -0.125894687   1.650952610   0.000000000
  F    0.218483751   2.513324458   0.000000000
  P    0.032969242  -2.275435004   0.000000000
  H   -0.668894388  -2.968838253  -1.022721997
  H   -0.668894388  -2.968838253   1.022721997
  F   -0.907791780  -0.934562632   0.000000000

5.29_1.50_F2--phosphine.wfx


