%nprocs=4
%mem=2GB
#p hf aug-cc-pvdz output=wfx scf=(conver=6) int=(grid=ultrafine)

title

0 1
  H   -0.125894687   1.650952610   0.000000000
  F    0.218483751   2.513324458   0.000000000
  P    0.319664843  -1.327412749   0.000000000
  H   -0.382198788  -2.020815998  -1.022721997
  H   -0.382198788  -2.020815998   1.022721997
  F   -0.621096180   0.013459623   0.000000000

5.29_0.95_F2--phosphine.wfx


