%nprocs=4
%mem=2GB
#p hf aug-cc-pvdz output=wfx scf=(conver=6) int=(grid=ultrafine)

title

0 1
  H    0.877639885   0.253766380  -0.699482539
  F    0.421979799   0.851309102  -1.242840685
  P    0.374427719  -1.100226182   1.820478853
  F    0.922315576   0.103460306   2.701731538
  F    1.256946567  -0.846468039   0.488256020
  H   -0.775775897  -0.410830189   1.330803840

5.32_0.90_hydrogenfluoride--phosphineF2.wfx


