%nprocs=4
%mem=2GB
#p hf aug-cc-pvdz output=wfx scf=(conver=6) int=(grid=ultrafine)

title

0 1
  H   -0.176353781  -0.044371204   0.055481540
 Cl    0.093460166  -0.038977817  -1.202312446
  H    0.615740627   0.275154328   2.056363253
  F   -0.191377957   0.037854039   1.674694895

5.34_0.80_hydrogenchloride--hydrogenfluoride.wfx


