%nprocs=4
%mem=2GB
#p hf aug-cc-pvdz output=wfx scf=(conver=6) int=(grid=ultrafine)

title

0 1
  H    0.429587998  -0.486560541   0.000000000
 Cl   -0.066167684  -1.677249578   0.000000000
  H   -0.644328406   2.899381680   0.894772468
  H   -0.644328406   2.899381680  -0.894772468
  H   -1.376807375   1.534468218   0.000000000
  C   -0.589350894   2.284511750   0.000000000
  F    0.648248438   1.624719734   0.000000000

5.35_1.10_hydrogenchloride--methylfluoride.wfx


