%nprocs=4
%mem=2GB
#p hf aug-cc-pvdz output=wfx scf=(conver=6) int=(grid=ultrafine)

title

0 1
  H    0.429587998  -0.486560541   0.000000000
 Cl   -0.066167684  -1.677249578   0.000000000
  H   -0.654267517   2.803414395   0.894772468
  H   -0.654267517   2.803414395  -0.894772468
  H   -1.386746486   1.438500932   0.000000000
  C   -0.599290005   2.188544465   0.000000000
  F    0.638309327   1.528752449   0.000000000

5.35_1.05_hydrogenchloride--methylfluoride.wfx


