%nprocs=4
%mem=2GB
#p hf aug-cc-pvdz output=wfx scf=(conver=6) int=(grid=ultrafine)

title

0 1
  H    0.899741532   1.996983088   0.000000000
 Cl   -0.020205803   2.887946808   0.000000000
  C   -0.050625008  -0.683531206   0.000000000
  F    1.069900870   0.039274129   0.000000000
  F   -0.754635719  -0.396369629  -1.082147125
  F   -0.754635719  -0.396369629   1.082147125
  F    0.263779918  -1.969497961   0.000000000

5.36_0.80_hydrogenchloride--tetraFmethane.wfx


