%nprocs=4
%mem=2GB
#p hf aug-cc-pvdz output=wfx scf=(conver=6) int=(grid=ultrafine)

title

0 1
  H   -0.262410292  -0.031032367   0.675994838
 Br    0.055754988  -0.019611785  -0.716815364
  H    0.589553826   0.378554633   5.235605944
  F   -0.233997410   0.167633091   4.874769870

5.37_2.00_hydrogenbromide--hydrogenfluoride.wfx


