%nprocs=4
%mem=2GB
#p hf aug-cc-pvdz output=wfx scf=(conver=6) int=(grid=ultrafine)

title

0 1
  H   -0.499627856   0.249626143   0.118499305
 Br    0.273074964  -0.060187914  -1.046367715
  H   -0.319193818   0.750581540   5.467956809
  H   -1.140309115  -0.834331118   5.344919116
  H    0.154300510  -0.405298079   4.188001779
  C   -0.667250190  -0.026549017   4.791904336
  F   -1.622936420   0.535072939   3.935305149

5.38_2.00_hydrogenbromide--methylfluoride.wfx


