%nprocs=4
%mem=2GB
#p hf aug-cc-pvdz output=wfx scf=(conver=6) int=(grid=ultrafine)

title

0 1
  H    0.056611427  -0.063269451  -0.898869585
  I    0.180449043  -0.243966834  -2.497001253
  F   -0.355697127   0.314403014   2.244097232
  F    0.706692713  -0.489340407   2.663367010

5.39_1.25_hydrogeniodide--F2.wfx


