%nprocs=4
%mem=2GB
#p hf aug-cc-pvdz output=wfx scf=(conver=6) int=(grid=ultrafine)

title

0 1
  H    0.056611427  -0.063269451  -0.898869585
  I    0.180449043  -0.243966834  -2.497001253
  F   -0.306220100   0.269082318   1.866941214
  F    0.756169740  -0.534661103   2.286210991

5.39_1.10_hydrogeniodide--F2.wfx


