%nprocs=4
%mem=2GB
#p hf aug-cc-pvdz output=wfx scf=(conver=6) int=(grid=ultrafine)

title

0 1
  H   -0.650095310   0.658648843   0.000000000
  I    0.014334529  -0.816331458   0.000000000
  H    1.352822248   4.573523920   0.000000000
  H    0.824774567   6.028556989  -0.894222833
  H    0.824774567   6.028556989   0.894222833
  C    0.677865750   5.427012791   0.000000000
  F   -0.636718856   4.952616779   0.000000000

5.41_2.00_hydrogeniodide--methylfluoride.wfx


