%nprocs=4
%mem=2GB
#p hf aug-cc-pvdz output=wfx scf=(conver=6) int=(grid=ultrafine)

title

0 1
  H   -1.731864764   1.445633417  -0.891927815
  H   -1.329323664  -0.047137424   0.000000000
  H   -1.731864764   1.445633417   0.891927815
  C   -1.272921285   1.035455701   0.000000000
 Cl    0.462069478   1.505773247   0.000000000

6.01_mon2_ethyne--methylchloride.wfx


