%nprocs=4
%mem=2GB
#p hf aug-cc-pvdz output=wfx scf=(conver=6) int=(grid=ultrafine)

title

0 1
  C    0.479911713  -2.111934053   0.000000000
  H    1.047301428  -1.212360231   0.000000000
  C   -0.175906264  -3.112159341   0.000000000
  H   -0.750117368  -4.004711377   0.000000000
  H   -1.878172752   2.125166786  -0.891927815
  H   -1.475631652   0.632395946   0.000000000
  H   -1.878172752   2.125166786   0.891927815
  C   -1.419229272   1.714989070   0.000000000
 Cl    0.315761490   2.185306616   0.000000000

6.01_1.25_ethyne--methylchloride.wfx


