%nprocs=4
%mem=2GB
#p hf aug-cc-pvdz output=wfx scf=(conver=6) int=(grid=ultrafine)

title

0 1
  C    0.479911713  -2.111934053   0.000000000
  H    1.047301428  -1.212360231   0.000000000
  C   -0.175906264  -3.112159341   0.000000000
  H   -0.750117368  -4.004711377   0.000000000
  H   -1.790387959   1.717446765  -0.891927815
  H   -1.387846859   0.224675924   0.000000000
  H   -1.790387959   1.717446765   0.891927815
  C   -1.331444480   1.307269049   0.000000000
 Cl    0.403546283   1.777586595   0.000000000

6.01_1.10_ethyne--methylchloride.wfx


