%nprocs=4
%mem=2GB
#p hf aug-cc-pvdz output=wfx scf=(conver=6) int=(grid=ultrafine)

title

0 1
  C    3.296630503   0.168006106   1.066843474
  H    2.335366386   0.092522766   1.510623090
  C    4.377290892   0.253169626   0.562675947
  H    5.336195375   0.328775420   0.114573759
  P   -3.666099647  -0.100348680   0.059465670
 Cl   -3.366961132  -0.135744088   2.115760956
 Cl   -2.541113943   1.550792425  -0.455288604
 Cl   -2.407715778  -1.626500713  -0.528549822

6.02_2.00_ethyne--PCl3.wfx


