%nprocs=4
%mem=2GB
#p hf aug-cc-pvdz output=wfx scf=(conver=6) int=(grid=ultrafine)

title

0 1
  C    3.296630503   0.168006106   1.066843474
  H    2.335366386   0.092522766   1.510623090
  C    4.377290892   0.253169626   0.562675947
  H    5.336195375   0.328775420   0.114573759
  P   -0.814935888   0.013784747  -0.243103263
 Cl   -0.515797373  -0.021610661   1.813192023
 Cl    0.310049816   1.664925852  -0.757857537
 Cl    0.443447981  -1.512367286  -0.831118755

6.02_1.00_ethyne--PCl3.wfx


