%nprocs=4
%mem=2GB
#p hf aug-cc-pvdz output=wfx scf=(conver=6) int=(grid=ultrafine)

title

0 1
  C    3.296630503   0.168006106   1.066843474
  H    2.335366386   0.092522766   1.510623090
  C    4.377290892   0.253169626   0.562675947
  H    5.336195375   0.328775420   0.114573759
  P   -0.244703136   0.036611432  -0.303617050
 Cl    0.054435379   0.001216024   1.752678236
 Cl    0.880282568   1.687752537  -0.818371324
 Cl    1.013680733  -1.489540601  -0.891632542

6.02_0.80_ethyne--PCl3.wfx


