%nprocs=4
%mem=2GB
#p hf aug-cc-pvdz output=wfx scf=(conver=6) int=(grid=ultrafine)

title

0 1
  P   -0.814935888   0.013784747  -0.243103263
 Cl   -0.515797373  -0.021610661   1.813192023
 Cl    0.310049816   1.664925852  -0.757857537
 Cl    0.443447981  -1.512367286  -0.831118755

6.02_mon2_ethyne--PCl3.wfx


