%nprocs=4
%mem=2GB
#p hf aug-cc-pvdz output=wfx scf=(conver=6) int=(grid=ultrafine)

title

0 1
 Cl   -0.714097573  -1.436429152  -1.594977546
  S   -0.685967979   0.582475443  -1.016571220
  S   -1.369609068   0.716782691   0.799440117
 Cl    0.201042123   0.400555153   2.137640314

6.03_mon2_ethyne--S2Cl2.wfx


