%nprocs=4
%mem=2GB
#p hf aug-cc-pvdz output=wfx scf=(conver=6) int=(grid=ultrafine)

title

0 1
  C    2.781418243  -0.608550324  -0.534769490
  H    2.005196997  -1.321134149  -0.666124262
  C    3.650641240   0.199478900  -0.390357533
  H    4.421813727   0.916509176  -0.259273507
 Cl   -1.393921216  -1.465252903  -1.827190867
  S   -1.365791622   0.553651692  -1.248784541
  S   -2.049432710   0.687958940   0.567226796
 Cl   -0.478781520   0.371731402   1.905426993

6.03_1.25_ethyne--S2Cl2.wfx


