%nprocs=4
%mem=2GB
#p hf aug-cc-pvdz output=wfx scf=(conver=6) int=(grid=ultrafine)

title

0 1
  C    3.139683787  -1.224758528  -0.441062220
  O    2.525702182  -2.234296335  -0.673575767
  O    2.543458640  -0.021049912  -0.305566673
  H    1.589719274  -0.152700560  -0.427772003
  C    4.628300085  -1.129085141  -0.266401205
  H    5.073566587  -2.110964144  -0.380050916
  H    5.042204445  -0.442372626  -1.003529445
  H    4.858442311  -0.724787500   0.718377119

6.09_mon1_aceticacid--S2Cl2.wfx


