%nprocs=4
%mem=2GB
#p hf aug-cc-pvdz output=wfx scf=(conver=6) int=(grid=ultrafine)

title

0 1
  O   -1.656641508   1.873570781  -1.792895933
  H   -1.206915583   1.844990107  -0.945419952
  C   -1.726449657   0.553383824  -2.310382491
  H   -2.265366327   0.611005944  -3.253136248
  H   -0.734695681   0.135270441  -2.501405712
  H   -2.266988365  -0.121412047  -1.641332007
  P    0.826529090  -0.433556379   1.053667129
 Cl   -1.016343487   0.445433286   1.423666313
 Cl    0.255107707  -2.033750973  -0.118755736
 Cl    1.565927464   0.854278174  -0.384882188

6.11_1.00_methanol--PCl3.wfx


