%nprocs=4
%mem=2GB
#p hf aug-cc-pvdz output=wfx scf=(conver=6) int=(grid=ultrafine)

title

0 1
  O   -0.957936578  -1.600403085  -1.455027213
  H   -0.158325201  -1.361622737  -0.972333763
  H   -1.029392041  -2.553813037  -1.372805313
  H   -0.796626824   1.754436782  -0.438031631
  H   -1.625423326   0.170797424  -0.449745163
  H   -1.333003310   1.020363873   1.097710548
  C   -0.960706192   0.827610378   0.098588753
 Cl    0.628927801  -0.007863572   0.254694714

6.12_0.80_water--methylchloride.wfx


