%nprocs=4
%mem=2GB
#p hf aug-cc-pvdz output=wfx scf=(conver=6) int=(grid=ultrafine)

title

0 1
  O   -0.957936578  -1.600403085  -1.455027213
  H   -0.158325201  -1.361622737  -0.972333763
  H   -1.029392041  -2.553813037  -1.372805313
  H   -0.747423512   1.839046730  -0.361342351
  H   -1.576220014   0.255407372  -0.373055883
  H   -1.283799998   1.104973821   1.174399828
  C   -0.911502880   0.912220326   0.175278033
 Cl    0.678131113   0.076746376   0.331383994

6.12_0.85_water--methylchloride.wfx


