%nprocs=4
%mem=2GB
#p hf aug-cc-pvdz output=wfx scf=(conver=6) int=(grid=ultrafine)

title

0 1
  P    0.107059463   1.120592372   0.000000000
 Cl   -1.825238929   0.411962822   0.000000000
 Cl    0.904936346   0.058928024   1.594095765
 Cl    0.904936346   0.058928024  -1.594095765

6.13_mon2_water--PCl3.wfx


