%nprocs=4
%mem=2GB
#p hf aug-cc-pvdz output=wfx scf=(conver=6) int=(grid=ultrafine)

title

0 1
  P   -0.321219550  -1.948835435   1.527411252
  F   -0.106737971  -0.422968017   1.923107644
  F    1.096628581  -2.242965255   0.885043584
  H   -0.979395488  -1.678676837   0.303582826
 Cl   -0.015619534   2.469666038  -1.372811158
 Cl   -0.089329418   3.350367023  -3.145581332

6.14_1.50_phosphineF2--Cl2.wfx


