%nprocs=4
%mem=2GB
#p hf aug-cc-pvdz output=wfx scf=(conver=6) int=(grid=ultrafine)

title

0 1
  H    1.134943156   0.464255462  -0.467961851
  H    2.134375891   1.451346819   0.870753575
  S    1.441289529   1.751931610  -0.237291113
  H   -2.377259166  -1.210650589   1.797209645
  H   -1.635715500   0.107386361   0.846184390
  H   -3.078538316  -0.742676567   0.225457726
  C   -2.165827232  -0.837369260   0.802008224
 Cl   -1.104775502  -2.029463924  -0.026261271

6.15_1.25_sulfane--methylchloride.wfx


