%nprocs=4
%mem=2GB
#p hf aug-cc-pvdz output=wfx scf=(conver=6) int=(grid=ultrafine)

title

0 1
  H    1.134943156   0.464255462  -0.467961851
  H    2.134375891   1.451346819   0.870753575
  S    1.441289529   1.751931610  -0.237291113
  H   -1.750137941  -0.512409161   1.673533483
  H   -1.008594275   0.805627789   0.722508228
  H   -2.451417092  -0.044435139   0.101781564
  C   -1.538706008  -0.139127832   0.678332062
 Cl   -0.477654277  -1.331222496  -0.149937433

6.15_0.90_sulfane--methylchloride.wfx


