%nprocs=4
%mem=2GB
#p hf aug-cc-pvdz output=wfx scf=(conver=6) int=(grid=ultrafine)

title

0 1
  H   -0.166740982  -0.172124732  -1.140544944
  F   -0.197387145  -0.132497381  -2.067892576
  H    0.756170304   1.171310666   1.237345845
 Cl    0.116768077   0.065403823   1.353998368

6.16_1.10_hydrogenfluoride--hydrogenchloride.wfx


