%nprocs=4
%mem=2GB
#p hf aug-cc-pvdz output=wfx scf=(conver=6) int=(grid=ultrafine)

title

0 1
  H   -0.166740982  -0.172124732  -1.140544944
  F   -0.197387145  -0.132497381  -2.067892576
  H    0.704623202   1.128123656   0.783792515
 Cl    0.065220975   0.022216813   0.900445038

6.16_0.90_hydrogenfluoride--hydrogenchloride.wfx


