%nprocs=4
%mem=2GB
#p hf aug-cc-pvdz output=wfx scf=(conver=6) int=(grid=ultrafine)

title

0 1
  H   -0.166740982  -0.172124732  -1.140544944
  F   -0.197387145  -0.132497381  -2.067892576
  H    0.717509978   1.138920408   0.897180848
 Cl    0.078107751   0.033013566   1.013833371

6.16_0.95_hydrogenfluoride--hydrogenchloride.wfx


