%nprocs=4
%mem=2GB
#p hf aug-cc-pvdz output=wfx scf=(conver=6) int=(grid=ultrafine)

title

0 1
  H   -0.315728734  -1.389828455   0.000000000
  F    0.099208777  -2.225581814   0.000000000
  H    1.306638964   2.714107182   0.893333170
  H    1.547008004   1.185474052   0.000000000
  H    1.306638964   2.714107182  -0.893333170
  C    1.060271434   2.153346836   0.000000000
 Cl   -0.722291928   1.875899276   0.000000000

6.17_1.50_hydrogenfluoride--methylchloride.wfx


