%nprocs=4
%mem=2GB
#p hf aug-cc-pvdz output=wfx scf=(conver=6) int=(grid=ultrafine)

title

0 1
  H    0.228834519   0.370628924   0.003365949
  F    0.368539278   0.917583230  -0.732497130
  P    0.824228071   0.303137849   3.442526309
 Cl   -0.067486132  -0.960612427   2.027270554
 Cl    2.622524508   0.675579410   2.516353744
 Cl   -0.187268563   2.052282374   3.057599489

6.18_1.05_hydrogenfluoride--PCl3.wfx


