%nprocs=4
%mem=2GB
#p hf aug-cc-pvdz output=wfx scf=(conver=6) int=(grid=ultrafine)

title

0 1
  H   -0.092966836  -0.971772838   0.278420076
 Cl    0.763202035  -1.756078545   0.845935265
  H    0.258582375   2.808067130   0.187371253
  H    1.181780290   1.289093726   0.019089666
  H    0.848555773   2.294868819  -1.418029947
  C    0.478620157   1.964002961  -0.455077818
 Cl   -1.056317667   1.064516169  -0.731637715

6.22_1.05_hydrogenchloride--methylchloride.wfx


