%nprocs=4
%mem=2GB
#p hf aug-cc-pvdz output=wfx scf=(conver=6) int=(grid=ultrafine)

title

0 1
  H    0.186338801   0.360035766  -0.033235668
 Cl    0.535543709   1.044378509  -1.062251879
  P    0.744703189   0.291599010   3.583627143
 Cl   -0.386042523  -0.957476893   2.353361698
 Cl    2.545678356   0.263034145   2.582994518
 Cl    0.011453512   2.131503088   3.014771051

6.23_1.10_hydrogenchloride--PCl3.wfx


