%nprocs=4
%mem=2GB
#p hf aug-cc-pvdz output=wfx scf=(conver=6) int=(grid=ultrafine)

title

0 1
  H    0.186338801   0.360035766  -0.033235668
 Cl    0.535543709   1.044378509  -1.062251879
  P    0.848772521   0.531146766   3.149700349
 Cl   -0.281973191  -0.717929137   1.919434904
 Cl    2.649747688   0.502581901   2.149067724
 Cl    0.115522844   2.371050844   2.580844257

6.23_0.90_hydrogenchloride--PCl3.wfx


