%nprocs=4
%mem=2GB
#p hf aug-cc-pvdz output=wfx scf=(conver=6) int=(grid=ultrafine)

title

0 1
  P    0.796737855   0.411372888   3.366663746
 Cl   -0.334007857  -0.837703015   2.136398301
 Cl    2.597713022   0.382808023   2.366031121
 Cl    0.063488178   2.251276966   2.797807654

6.23_mon2_hydrogenchloride--PCl3.wfx


