%nprocs=4
%mem=2GB
#p hf aug-cc-pvdz output=wfx scf=(conver=6) int=(grid=ultrafine)

title

0 1
  H    0.186338801   0.360035766  -0.033235668
 Cl    0.535543709   1.044378509  -1.062251879
  P    0.796737855   0.411372888   3.366663746
 Cl   -0.334007857  -0.837703015   2.136398301
 Cl    2.597713022   0.382808023   2.366031121
 Cl    0.063488178   2.251276966   2.797807654

6.23_1.00_hydrogenchloride--PCl3.wfx


