%nprocs=4
%mem=2GB
#p hf aug-cc-pvdz output=wfx scf=(conver=6) int=(grid=ultrafine)

title

0 1
  H   -0.410652818   0.210789272  -0.024674537
 Cl   -0.349341613   1.458523799  -0.335536749
 Cl    0.017108131  -2.862146384   1.994287084
  S    1.221954037  -1.712389524   3.295937055
  S    0.140845845  -0.277463284   4.033457580
 Cl   -0.823390711  -0.980854472   5.746543238

6.24_1.50_hydrogenchloride--S2Cl2.wfx


