%nprocs=4
%mem=2GB
#p hf aug-cc-pvdz output=wfx scf=(conver=6) int=(grid=ultrafine)

title

0 1
  H   -0.206302610   0.021839009   0.188682247
 Br   -0.088763291  -0.089821309  -1.231551412
  H    1.393348388   0.119310501   2.255864878
 Cl    0.127906577   0.180504714   2.450390443

6.25_0.90_hydrogenbromide--hydrogenchloride.wfx


