%nprocs=4
%mem=2GB
#p hf aug-cc-pvdz output=wfx scf=(conver=6) int=(grid=ultrafine)

title

0 1
  H   -0.206302610   0.021839009   0.188682247
 Br   -0.088763291  -0.089821309  -1.231551412
  H    1.801826283   0.313235252   5.020174896
 Cl    0.536384472   0.374429465   5.214700461

6.25_2.00_hydrogenbromide--hydrogenchloride.wfx


