%nprocs=4
%mem=2GB
#p hf aug-cc-pvdz output=wfx scf=(conver=6) int=(grid=ultrafine)

title

0 1
  H   -0.519803633  -0.110834186   0.000000000
 Br    0.006830518  -1.446762766   0.000000000
  H    1.554773069   2.850389550  -0.892805366
  H    1.554773069   2.850389550   0.892805366
  H    1.605284142   1.305252606   0.000000000
  C    1.237627933   2.325038183   0.000000000
 Cl   -0.561026162   2.268490255   0.000000000

6.26_1.00_hydrogenbromide--methylchloride.wfx


