%nprocs=4
%mem=2GB
#p hf aug-cc-pvdz output=wfx scf=(conver=6) int=(grid=ultrafine)

title

0 1
  H    0.201908319   0.238908418  -0.034579667
 Br    0.424126629   1.040088567  -1.193997794
  P    0.888840463   0.598598501   3.141121361
 Cl   -0.031065343  -0.877502521   1.993759788
 Cl    2.640723498   0.851607763   2.084321116
 Cl   -0.175176007   2.256651049   2.533704267

6.27_0.90_hydrogenbromide--PCl3.wfx


