%nprocs=4
%mem=2GB
#p hf aug-cc-pvdz output=wfx scf=(conver=6) int=(grid=ultrafine)

title

0 1
  H    0.201908319   0.238908418  -0.034579667
 Br    0.424126629   1.040088567  -1.193997794
  P    0.604094877  -0.765903758   5.620202918
 Cl   -0.315810929  -2.242004780   4.472841345
 Cl    2.355977912  -0.512894496   4.563402673
 Cl   -0.459921593   0.892148790   5.012785824

6.27_2.00_hydrogenbromide--PCl3.wfx


