%nprocs=4
%mem=2GB
#p hf aug-cc-pvdz output=wfx scf=(conver=6) int=(grid=ultrafine)

title

0 1
  H    0.201908319   0.238908418  -0.034579667
 Br    0.424126629   1.040088567  -1.193997794
  P    0.914726426   0.722644161   2.915750311
 Cl   -0.005179380  -0.753456861   1.768388738
 Cl    2.666609461   0.975653423   1.858950066
 Cl   -0.149290044   2.380696709   2.308333217

6.27_0.80_hydrogenbromide--PCl3.wfx


