%nprocs=4
%mem=2GB
#p hf aug-cc-pvdz output=wfx scf=(conver=6) int=(grid=ultrafine)

title

0 1
  H   -0.000420359   0.019101069   0.240038585
 Br   -0.551934057  -1.060207363  -0.515460577
 Cl    0.766119032   1.800350010   1.670651527
  S   -0.089291866   1.224152651   3.514033002
  S   -1.151190594  -0.380679408   3.246524200
 Cl    0.091516071  -2.044009785   3.415496434

6.28_0.95_hydrogenbromide--S2Cl2.wfx


