%nprocs=4
%mem=2GB
#p hf aug-cc-pvdz output=wfx scf=(conver=6) int=(grid=ultrafine)

title

0 1
  H   -0.000420359   0.019101069   0.240038585
 Br   -0.551934057  -1.060207363  -0.515460577
 Cl    1.209904994   2.831599396   2.498901125
  S    0.354494096   2.255402038   4.342282600
  S   -0.707404632   0.650569978   4.074773798
 Cl    0.535302034  -1.012760398   4.243746032

6.28_1.50_hydrogenbromide--S2Cl2.wfx


