%nprocs=4
%mem=2GB
#p hf aug-cc-pvdz output=wfx scf=(conver=6) int=(grid=ultrafine)

title

0 1
  H   -0.000420359   0.019101069   0.240038585
 Br   -0.551934057  -1.060207363  -0.515460577
 Cl    0.725774853   1.706600066   1.595356109
  S   -0.129636045   1.130402706   3.438737584
  S   -1.191534773  -0.474429352   3.171228782
 Cl    0.051171892  -2.137759730   3.340201016

6.28_0.90_hydrogenbromide--S2Cl2.wfx


