%nprocs=4
%mem=2GB
#p hf aug-cc-pvdz output=wfx scf=(conver=6) int=(grid=ultrafine)

title

0 1
  H   -0.000420359   0.019101069   0.240038585
 Br   -0.551934057  -1.060207363  -0.515460577
 Cl    0.685430675   1.612850121   1.520060691
  S   -0.169980223   1.036652762   3.363442166
  S   -1.231878951  -0.568179297   3.095933364
 Cl    0.010827714  -2.231509674   3.264905598

6.28_0.85_hydrogenbromide--S2Cl2.wfx


