%nprocs=4
%mem=2GB
#p hf aug-cc-pvdz output=wfx scf=(conver=6) int=(grid=ultrafine)

title

0 1
  H   -0.121256969   0.081730430  -0.701405515
  I    0.507580931  -0.524354363  -2.059356758
 Cl   -0.406850486   0.444641024   1.560129478
 Cl    1.074525308  -0.890112788   1.798923745

6.29_0.85_hydrogeniodide--Cl2.wfx


