%nprocs=4
%mem=2GB
#p hf aug-cc-pvdz output=wfx scf=(conver=6) int=(grid=ultrafine)

title

0 1
  H   -0.121256969   0.081730430  -0.701405515
  I    0.507580931  -0.524354363  -2.059356758
 Cl   -0.541247435   0.615422480   2.624381240
 Cl    0.940128359  -0.719331332   2.863175507

6.29_1.25_hydrogeniodide--Cl2.wfx


