%nprocs=4
%mem=2GB
#p hf aug-cc-pvdz output=wfx scf=(conver=6) int=(grid=ultrafine)

title

0 1
  H   -0.121256969   0.081730430  -0.701405515
  I    0.507580931  -0.524354363  -2.059356758
 Cl   -0.474048961   0.530031752   2.092255359
 Cl    1.007326833  -0.804722060   2.331049626

6.29_1.05_hydrogeniodide--Cl2.wfx


