%nprocs=4
%mem=2GB
#p hf aug-cc-pvdz output=wfx scf=(conver=6) int=(grid=ultrafine)

title

0 1
  H   -0.702521814   0.041860819  -0.493308322
  I   -0.187423614   0.613641067   0.935060773
  H    1.005149722  -1.715006313  -0.737225672
  H    0.436778268  -3.197479025  -1.551993495
  H    1.510048586  -2.060822244  -2.413627946
  C    0.715749320  -2.158790474  -1.683268854
 Cl   -0.720243934  -1.270858658  -2.300699429

6.30_0.90_hydrogeniodide--methylchloride.wfx


