%nprocs=4
%mem=2GB
#p hf aug-cc-pvdz output=wfx scf=(conver=6) int=(grid=ultrafine)

title

0 1
  H    0.315231372   0.228341787  -0.485548812
  I   -0.037111902  -0.908289732  -1.577376645
 Cl    0.520029333   1.861645788   1.258658843
  S   -0.249914327   0.777182543   2.891722969
  S   -0.917804970  -0.935085021   2.257859025
 Cl    0.659077690  -2.298998372   2.222216834

6.32_0.90_hydrogeniodide--S2Cl2.wfx


