%nprocs=4
%mem=2GB
#p hf aug-cc-pvdz output=wfx scf=(conver=6) int=(grid=ultrafine)

title

0 1
  H    0.315231372   0.228341787  -0.485548812
  I   -0.037111902  -0.908289732  -1.577376645
 Cl    0.770337952   3.857906233   3.390468200
  S    0.000394292   2.773442988   5.023532326
  S   -0.667496351   1.061175424   4.389668382
 Cl    0.909386309  -0.302737927   4.354026191

6.32_2.00_hydrogeniodide--S2Cl2.wfx


