%nprocs=4
%mem=2GB
#p hf aug-cc-pvdz output=wfx scf=(conver=6) int=(grid=ultrafine)

title

0 1
  H    1.428307360   1.062540555   0.142527943
  H    1.607711112   0.506591654   1.837784627
  H    2.246054079  -0.495150752   0.501192458
  C    1.481503995   0.207894877   0.805301030
 Br   -0.245607261  -0.717970233   0.675035663

7.05_mon2_methanol--methylbromide.wfx


