%nprocs=4
%mem=2GB
#p hf aug-cc-pvdz output=wfx scf=(conver=6) int=(grid=ultrafine)

title

0 1
  O   -0.240701088   1.999524425  -1.453316336
  H   -0.749410811   1.398189354  -0.900205020
  C    0.041786954   1.342830009  -2.680926899
  H    0.664870094   2.014850194  -3.266432542
  H    0.585166578   0.406156399  -2.527311245
  H   -0.867739438   1.129788836  -3.248683900
  H    1.453497538   0.956732576   0.221289977
  H    1.632901290   0.400783675   1.916546661
  H    2.271244256  -0.600958731   0.579954492
  C    1.506694172   0.102086898   0.884063064
 Br   -0.220417084  -0.823778212   0.753797697

7.05_1.05_methanol--methylbromide.wfx


