%nprocs=4
%mem=2GB
#p hf aug-cc-pvdz output=wfx scf=(conver=6) int=(grid=ultrafine)

title

0 1
  P    0.644638872  -1.223091347   2.053343625
  F    0.133898085   0.128313107   2.703268011
  F    2.088047328  -0.758228601   1.595282230
  H    0.024242371  -1.014481404   0.792614980
 Br    0.086097048   1.185599460  -0.935636646
 Br   -0.073861939   2.738044773  -2.580337247

7.07_1.00_phosphineF2--Br2.wfx


