%nprocs=4
%mem=2GB
#p hf aug-cc-pvdz output=wfx scf=(conver=6) int=(grid=ultrafine)

title

0 1
  H    1.028618147   3.006350474   0.686345587
  H    1.376185339   1.173090011   0.155366235
  S    1.769888972   1.988733910   1.148416968
  H   -0.403364654   0.371307524   1.707851737
  H   -2.040662941  -0.100206619   1.155107233
  H   -0.884855296  -1.353432398   1.693591346
  C   -0.999222973  -0.388349703   1.217180258
 Br   -0.327905595  -0.557323784  -0.617104960

7.08_0.90_sulfane--methylbromide.wfx


