%nprocs=4
%mem=2GB
#p hf aug-cc-pvdz output=wfx scf=(conver=6) int=(grid=ultrafine)

title

0 1
  H    1.028618147   3.006350474   0.686345587
  H    1.376185339   1.173090011   0.155366235
  S    1.769888972   1.988733910   1.148416968
  H   -0.498036372   0.275173425   1.664936670
  H   -2.135334659  -0.196340718   1.112192166
  H   -0.979527014  -1.449566497   1.650676279
  C   -1.093894691  -0.484483802   1.174265191
 Br   -0.422577313  -0.653457883  -0.660020027

7.08_0.95_sulfane--methylbromide.wfx


