%nprocs=4
%mem=2GB
#p hf aug-cc-pvdz output=wfx scf=(conver=6) int=(grid=ultrafine)

title

0 1
  H   -0.211868903  -0.183170600  -1.755870419
  F   -0.260864790  -0.164601284  -2.683303353
  H    0.741070499   1.284647510   0.630141846
 Br    0.069616354   0.036135403   0.782772587

7.09_1.05_hydrogenfluoride--hydrogenbromide.wfx


