%nprocs=4
%mem=2GB
#p hf aug-cc-pvdz output=wfx scf=(conver=6) int=(grid=ultrafine)

title

0 1
  H   -0.211868903  -0.183170600  -1.755870419
  F   -0.260864790  -0.164601284  -2.683303353
  H    0.754474559   1.295090653   0.751029608
 Br    0.083020414   0.046578546   0.903660349

7.09_1.10_hydrogenfluoride--hydrogenbromide.wfx


