%nprocs=4
%mem=2GB
#p hf aug-cc-pvdz output=wfx scf=(conver=6) int=(grid=ultrafine)

title

0 1
  H    0.370908107  -1.769321552   0.000000000
  F    0.054797220  -2.647246487   0.000000000
  H   -2.039954974   2.092872293   0.895318218
  H   -2.039954974   2.092872293  -0.895318218
  H   -1.919960300   0.546228996   0.000000000
  C   -1.682153094   1.601988578   0.000000000
 Br    0.277352368   1.753791304   0.000000000

7.10_1.50_hydrogenfluoride--methylbromide.wfx


