%nprocs=4
%mem=2GB
#p hf aug-cc-pvdz output=wfx scf=(conver=6) int=(grid=ultrafine)

title

0 1
  H    0.370908107  -1.769321552   0.000000000
  F    0.054797220  -2.647246487   0.000000000
  H   -2.005651203   0.801064246   0.895318218
  H   -2.005651203   0.801064246  -0.895318218
  H   -1.885656529  -0.745579051   0.000000000
  C   -1.647849322   0.310180531   0.000000000
 Br    0.311656139   0.461983257   0.000000000

7.10_0.95_hydrogenfluoride--methylbromide.wfx


