%nprocs=4
%mem=2GB
#p hf aug-cc-pvdz output=wfx scf=(conver=6) int=(grid=ultrafine)

title

0 1
  H    0.131593103  -1.418267892   0.000000000
 Cl   -0.001545089  -2.698740647   0.000000000
  H   -1.394524526   0.856672913   0.000000000
 Br    0.028422649   0.937853992   0.000000000

7.11_0.90_hydrogenchloride--hydrogenbromide.wfx


