%nprocs=4
%mem=2GB
#p hf aug-cc-pvdz output=wfx scf=(conver=6) int=(grid=ultrafine)

title

0 1
  H   -0.072045994   1.406971908  -0.521508829
 Cl   -0.835595874   2.302565376  -1.058046093
  H   -1.014608038  -2.754584574  -0.292162986
  H   -1.478898308  -2.174839354   1.336255352
  H   -1.585496515  -1.072701704  -0.070130908
  C   -1.057214609  -1.905255724   0.376912844
 Br    0.789016817  -1.321447214   0.695460254

7.12_1.25_hydrogenchloride--methylbromide.wfx


