%nprocs=4
%mem=2GB
#p hf aug-cc-pvdz output=wfx scf=(conver=6) int=(grid=ultrafine)

title

0 1
  H   -0.072045994   1.406971908  -0.521508829
 Cl   -0.835595874   2.302565376  -1.058046093
  H   -1.221263112  -2.099763984  -0.584235566
  H   -1.685553382  -1.520018764   1.044182772
  H   -1.792151589  -0.417881115  -0.362203487
  C   -1.263869683  -1.250435135   0.084840265
 Br    0.582361743  -0.666626625   0.403387674

7.12_0.95_hydrogenchloride--methylbromide.wfx


