%nprocs=4
%mem=2GB
#p hf aug-cc-pvdz output=wfx scf=(conver=6) int=(grid=ultrafine)

title

0 1
  H   -0.178902705   0.017114144  -0.619110867
 Br   -0.130070359  -0.202176731  -2.032071101
  H    1.283318465  -0.541833887   1.352186117
 Br    0.056391646   0.170134125   1.488961111

7.13_0.80_hydrogenbromide--hydrogenbromide.wfx


