%nprocs=4
%mem=2GB
#p hf aug-cc-pvdz output=wfx scf=(conver=6) int=(grid=ultrafine)

title

0 1
  H   -0.178902705   0.017114144  -0.619110867
 Br   -0.130070359  -0.202176731  -2.032071101
  H    1.415671538  -0.455760148   2.537976605
 Br    0.188744719   0.256207864   2.674751599

7.13_1.25_hydrogenbromide--hydrogenbromide.wfx


