%nprocs=4
%mem=2GB
#p hf aug-cc-pvdz output=wfx scf=(conver=6) int=(grid=ultrafine)

title

0 1
  H   -0.178902705   0.017114144  -0.619110867
 Br   -0.130070359  -0.202176731  -2.032071101
  H    1.636259992  -0.312303916   4.514294085
 Br    0.409333173   0.399664096   4.651069079

7.13_2.00_hydrogenbromide--hydrogenbromide.wfx


