%nprocs=4
%mem=2GB
#p hf aug-cc-pvdz output=wfx scf=(conver=6) int=(grid=ultrafine)

title

0 1
  H   -0.178902705   0.017114144  -0.619110867
 Br   -0.130070359  -0.202176731  -2.032071101
  H    1.327436156  -0.513142641   1.747449613
 Br    0.100509337   0.198825371   1.884224607

7.13_0.95_hydrogenbromide--hydrogenbromide.wfx


