%nprocs=4
%mem=2GB
#p hf aug-cc-pvdz output=wfx scf=(conver=6) int=(grid=ultrafine)

title

0 1
  H   -1.838061602  -0.486793751   0.000000000
  H   -2.027775607  -2.025162078  -0.894873069
  H   -2.027775607  -2.025162078   0.894873069
  C   -1.645110469  -1.552249965   0.000000000
 Br    0.301637670  -1.792883926   0.000000000

7.14_mon2_hydrogenbromide--methylbromide.wfx


