%nprocs=4
%mem=2GB
#p hf aug-cc-pvdz output=wfx scf=(conver=6) int=(grid=ultrafine)

title

0 1
  H   -0.054804993   0.036642779  -0.613597215
  I    0.545944631  -0.621738058  -1.961828405
 Br   -0.777557792   1.008060258   3.363599541
 Br    0.844781336  -0.590430052   3.756001539

7.15_1.50_hydrogeniodide--Br2.wfx


