%nprocs=4
%mem=2GB
#p hf aug-cc-pvdz output=wfx scf=(conver=6) int=(grid=ultrafine)

title

0 1
  C    2.663045616   0.227510949  -0.731863166
  H    2.093230286   0.104836459   0.157573983
  C    3.284572696   0.365593487  -1.744345889
  H    3.844529683   0.488082556  -2.637569752
  H   -1.250296803  -0.801005617  -1.693985037
  H   -1.352719282   0.975048917  -1.514562771
  H    0.243931682   0.183947795  -1.681520259
  C   -0.767961775   0.087909895  -1.308493257
 Br   -0.660758879  -0.102693870   0.639417675

7.33_0.95_ethyne--methylbromide.wfx


