%nprocs=4
%mem=2GB
#p hf aug-cc-pvdz output=wfx scf=(conver=6) int=(grid=ultrafine)

title

0 1
  H   -1.395243601  -0.811928266  -1.668624843
  H   -1.497666080   0.964126268  -1.489202577
  H    0.098984884   0.173025146  -1.656160065
  C   -0.912908573   0.076987246  -1.283133063
 Br   -0.805705677  -0.113616519   0.664777869

7.33_mon2_ethyne--methylbromide.wfx


