%nprocs=4
%mem=2GB
#p hf aug-cc-pvdz output=wfx scf=(conver=6) int=(grid=ultrafine)

title

0 1
  C    3.015193374   2.280630281  -0.314328323
  H    1.979179320   2.225806933  -0.541972989
  C    4.181016580   2.341859589  -0.056243710
  H    5.215756464   2.396168758   0.172770979
  I    0.460486678  -1.038781378   0.396265665
  I   -1.064573884   0.935561191  -0.604351288

8.01_1.05_ethyne--I2.wfx


