%nprocs=4
%mem=2GB
#p hf aug-cc-pvdz output=wfx scf=(conver=6) int=(grid=ultrafine)

title

0 1
 Cl   -0.575698435  -1.472214385   2.379943369
  O   -1.975232315  -1.153829938   2.226844808
  O   -0.073175075  -2.291167023   1.295048366
  O    0.236358158   0.003916480   2.218315324
  H    0.067468974   0.296412876   1.297912989
  H   -0.629663333  -1.198834152  -1.278224160
  I   -0.545510920   0.368603837  -1.661590932

8.04_1.10_chloricacid--hydrogeniodide.wfx


