%nprocs=4
%mem=2GB
#p hf aug-cc-pvdz output=wfx scf=(conver=6) int=(grid=ultrafine)

title

0 1
  H   -1.537232451   0.024646854   2.604461955
  H    2.024332805  -0.509374977   2.647351126
  H    0.296020737   1.402416451   0.134638147
  P    0.411031128   0.866065822   2.239745758
  O    0.393017290   1.538665348   3.530860407
  O   -0.787360387  -0.190475293   2.040080956
  O    0.338770549   1.836394556   0.999975294
  O    1.679644999  -0.027485278   1.889071108
  H   -1.084376878  -2.118928136  -1.089585954
  I   -0.605527758  -1.612820963  -2.548579472

8.06_1.50_phosphoricacid--hydrogeniodide.wfx


