%nprocs=4
%mem=2GB
#p hf aug-cc-pvdz output=wfx scf=(conver=6) int=(grid=ultrafine)

title

0 1
  P    0.644162376  -1.193150544   2.038614971
  F    0.129519841   0.166470517   2.666569853
  F    2.090702751  -0.735539023   1.584950187
  H    0.032744745  -0.999681717   0.768764606
  I    0.059930124   1.323560824  -1.125388289
  I   -0.094517416   3.181142221  -2.971971221

8.09_1.05_phosphineF2--I2.wfx


