%nprocs=4
%mem=2GB
#p hf aug-cc-pvdz output=wfx scf=(conver=6) int=(grid=ultrafine)

title

0 1
  H    0.074202185   0.025904311  -0.630747507
  F    0.250671682  -0.046737067  -1.540202382
  H    1.323815333   0.373843861   1.855383438
  I   -0.259384736   0.207775428   1.585681246

8.10_0.85_hydrogenfluoride--hydrogeniodide.wfx


