%nprocs=4
%mem=2GB
#p hf aug-cc-pvdz output=wfx scf=(conver=6) int=(grid=ultrafine)

title

0 1
  H    0.074202185   0.025904311  -0.630747507
  F    0.250671682  -0.046737067  -1.540202382
  H    0.872491852   0.619904784   4.854081163
  I   -0.710708217   0.453836351   4.584378971

8.10_2.00_hydrogenfluoride--hydrogeniodide.wfx


