%nprocs=4
%mem=2GB
#p hf aug-cc-pvdz output=wfx scf=(conver=6) int=(grid=ultrafine)

title

0 1
  H    0.527032512  -0.487824092  -0.450049282
  F    0.315571085  -0.346592732  -1.343391973
  I   -0.891920107   0.887705295   2.521070286
  I    1.023726253  -0.820364627   1.719022451

8.11_0.85_hydrogenfluoride--I2.wfx


