%nprocs=4
%mem=2GB
#p hf aug-cc-pvdz output=wfx scf=(conver=6) int=(grid=ultrafine)

title

0 1
  H    0.527032512  -0.487824092  -0.450049282
  F    0.315571085  -0.346592732  -1.343391973
  I   -0.745833712   0.789899255   3.159032561
  I    1.169812648  -0.918170667   2.356984726

8.11_1.10_hydrogenfluoride--I2.wfx


