%nprocs=4
%mem=2GB
#p hf aug-cc-pvdz output=wfx scf=(conver=6) int=(grid=ultrafine)

title

0 1
  H    0.527032512  -0.487824092  -0.450049282
  F    0.315571085  -0.346592732  -1.343391973
  I   -0.921137386   0.907266503   2.393477831
  I    0.994508974  -0.800803419   1.591429996

8.11_0.80_hydrogenfluoride--I2.wfx


