%nprocs=4
%mem=2GB
#p hf aug-cc-pvdz output=wfx scf=(conver=6) int=(grid=ultrafine)

title

0 1
  H    0.527032512  -0.487824092  -0.450049282
  F    0.315571085  -0.346592732  -1.343391973
  I   -0.658181876   0.731215631   3.541809926
  I    1.257464484  -0.976854291   2.739762090

8.11_1.25_hydrogenfluoride--I2.wfx


