%nprocs=4
%mem=2GB
#p hf aug-cc-pvdz output=wfx scf=(conver=6) int=(grid=ultrafine)

title

0 1
  H   -1.689467412   1.506010635  -1.449584931
  F   -2.546181215   1.870770032  -1.505622768
  H   -0.413538820   1.632723049   2.014538842
  H   -1.895794559   1.210210324   1.100898456
  H   -0.974193399  -0.067813935   1.955854291
  C   -0.920881433   0.876444711   1.430815006
  I    0.260491015   0.548154192  -0.345692044

8.12_0.95_hydrogenfluoride--methyliodide.wfx


