%nprocs=4
%mem=2GB
#p hf aug-cc-pvdz output=wfx scf=(conver=6) int=(grid=ultrafine)

title

0 1
  H   -0.027484798   0.006213767  -0.452895749
 Cl    0.385817577  -0.417411525  -1.596387247
  I   -0.624361728   0.666591783   2.333486521
  I    1.358896943  -1.076944285   2.835672425

8.14_1.05_hydrogenchloride--I2.wfx


