%nprocs=4
%mem=2GB
#p hf aug-cc-pvdz output=wfx scf=(conver=6) int=(grid=ultrafine)

title

0 1
  H   -0.027484798   0.006213767  -0.452895749
 Cl    0.385817577  -0.417411525  -1.596387247
  I   -0.880166126   0.949610933   3.527650351
  I    1.103092544  -0.793925135   4.029836255

8.14_1.50_hydrogenchloride--I2.wfx


