%nprocs=4
%mem=2GB
#p hf aug-cc-pvdz output=wfx scf=(conver=6) int=(grid=ultrafine)

title

0 1
  H   -0.027484798   0.006213767  -0.452895749
 Cl    0.385817577  -0.417411525  -1.596387247
  I   -0.482248173   0.509358922   1.670062171
  I    1.501010498  -1.234177146   2.172248075

8.14_0.80_hydrogenchloride--I2.wfx


