%nprocs=4
%mem=2GB
#p hf aug-cc-pvdz output=wfx scf=(conver=6) int=(grid=ultrafine)

title

0 1
  H    0.002966274  -0.019471612  -0.479045110
 Br    0.558651635  -0.554914781  -1.684649938
  I   -0.626395072   0.630208916   1.875316968
  I    1.354348656  -1.084639376   2.474092718

8.16_0.90_hydrogenbromide--I2.wfx


