%nprocs=4
%mem=2GB
#p hf aug-cc-pvdz output=wfx scf=(conver=6) int=(grid=ultrafine)

title

0 1
  H    0.002966274  -0.019471612  -0.479045110
 Br    0.558651635  -0.554914781  -1.684649938
  I   -1.395614494   1.424262894   4.752870620
  I    0.585129234  -0.290585398   5.351646369

8.16_2.00_hydrogenbromide--I2.wfx


