%nprocs=4
%mem=2GB
#p hf aug-cc-pvdz output=wfx scf=(conver=6) int=(grid=ultrafine)

title

0 1
  H    0.002966274  -0.019471612  -0.479045110
 Br    0.558651635  -0.554914781  -1.684649938
  I   -0.556466033   0.558022190   1.613721182
  I    1.424277695  -1.156826102   2.212496931

8.16_0.80_hydrogenbromide--I2.wfx


