%nprocs=4
%mem=2GB
#p hf aug-cc-pvdz output=wfx scf=(conver=6) int=(grid=ultrafine)

title

0 1
  H    0.002966274  -0.019471612  -0.479045110
 Br    0.558651635  -0.554914781  -1.684649938
  I   -0.591430552   0.594115553   1.744519075
  I    1.389313176  -1.120732739   2.343294824

8.16_0.85_hydrogenbromide--I2.wfx


