%nprocs=4
%mem=2GB
#p hf aug-cc-pvdz output=wfx scf=(conver=6) int=(grid=ultrafine)

title

0 1
  H   -0.026480969   0.005839846  -0.515636747
  I    0.650626611  -0.660179342  -1.827083976
  I   -0.892141603   0.953844364   2.841826920
  I    1.071445124  -0.804746464   3.361485480

8.18_1.25_hydrogeniodide--I2.wfx


