%nprocs=4
%mem=2GB
#p hf aug-cc-pvdz output=wfx scf=(conver=6) int=(grid=ultrafine)

title

0 1
  H   -0.507870575   0.917833145  -0.360493599
  I   -1.171783424   2.175692016   0.433163743
  H    2.972551362  -0.718289602   1.109505204
  H    1.336445406  -0.084993312   1.468851544
  H    1.719014206  -1.806485991   1.780666903
  C    1.915764458  -0.944866240   1.156752272
  I    1.279914041  -1.444092749  -0.840238835

8.19_1.10_hydrogeniodide--methyliodide.wfx


