%nprocs=4
%mem=4GB
#p pbepbe aug-cc-pvtz output=wfx scf=(conver=6) int=(grid=ultrafine)

title

1 1
c 1.211586366683920 0.699509714951444 -0.202946868547395
c 1.211586366683920 -0.699509714951444 -0.202946868547395
c 0.000000000000000 -1.399019429902882 -0.202946868547395
c -1.211586366683920 -0.699509714951444 -0.202946868547395
c -1.211586366683920 0.699509714951444 -0.202946868547395
c 0.000000000000000 1.399019429902882 -0.202946868547395
h 2.147917364938520 1.240100668844327 -0.243615319887873
h 2.147917364938520 -1.240100668844327 -0.243615319887873
h 0.000000000000000 -2.480201337688654 -0.243615319887873
h -2.147917364938520 -1.240100668844327 -0.243615319887873
h -2.147917364938520 1.240100668844327 -0.243615319887873
h 0.000000000000000 2.480201337688654 -0.243615319887873
k 0.000000000000000 0.000000000000000 2.679373130611580

bz_k+.wfx

