%nprocs=4
%mem=4GB
#p pbepbe aug-cc-pvtz output=wfx scf=(conver=6) int=(grid=ultrafine)

title

0 1
k 2.623890392216987 -2.623890392216987 2.623890392216987
k -2.623890392216987 2.623890392216987 2.623890392216987
k 2.623890392216987 2.623890392216987 -2.623890392216987
k -2.623890392216987 -2.623890392216987 -2.623890392216987
k 1.617471428165389 1.617471428165389 1.617471428165389
k -1.617471428165389 1.617471428165389 -1.617471428165389
k -1.617471428165389 -1.617471428165389 1.617471428165389
k 1.617471428165389 -1.617471428165389 -1.617471428165389

k8.wfx

