%nprocs=4
%mem=4GB
#p pbepbe aug-cc-pvtz output=wfx scf=(conver=6) int=(grid=ultrafine)

title

0 1
na 1.982667416823876 -1.982667416823876 1.982667416823876
na -1.982667416823876 1.982667416823876 1.982667416823876
na 1.982667416823876 1.982667416823876 -1.982667416823876
na -1.982667416823876 -1.982667416823876 -1.982667416823876
na 1.230208857649344 1.230208857649344 1.230208857649344
na -1.230208857649344 1.230208857649344 -1.230208857649344
na -1.230208857649344 -1.230208857649344 1.230208857649344
na 1.230208857649344 -1.230208857649344 -1.230208857649344

na8.wfx

