%nprocs=4
%mem=4GB
#p pbepbe aug-cc-pvtz output=wfx scf=(conver=6) int=(grid=ultrafine)

title

0 1
C -0.099779142000000 -0.049213106000000 -0.049809806000000
H -0.812383509000000 0.769437899000000 -0.053814782000000
H -0.386626161000000 -0.773928179000000 0.705768112000000
H 0.890551861000000 0.333663823000000 0.175221084000000
H -0.089826477000000 -0.524172039000000 -1.025860985000000

01methaneF2095_1.wfx

