%nprocs=4
%mem=4GB
#p pbepbe aug-cc-pvtz output=wfx scf=(conver=6) int=(grid=ultrafine)

title

0 1
C -0.032603000000000 -0.245329000000000 -0.035933000000000
I -2.710587695000000 -2.928424651000000 -1.353551401000000
I -4.485466695000000 -4.705429651000000 -2.226373401000000
H -0.980553000000000 0.254481000000000 -0.212468000000000
H -0.160128000000000 -1.020226000000000 0.714308000000000
H 0.692193000000000 0.480189000000000 0.320357000000000
H 0.328323000000000 -0.685520000000000 -0.960895000000000

04methaneI2110.wfx

