%nprocs=4
%mem=4GB
#p pbepbe aug-cc-pvtz output=wfx scf=(conver=6) int=(grid=ultrafine)

title

0 1
C 0.016068512000000 -0.009157555000000 -1.674678063000000
H -0.064301786000000 0.036278373000000 -2.756177975000000
H -0.842747097000000 -0.534126249000000 -1.268641792000000
H 0.926809756000000 -0.534767838000000 -1.403805529000000
H 0.041670064000000 0.997606676000000 -1.270014746000000

05fluoromethanemethane095_2.wfx

