%nprocs=4
%mem=4GB
#p pbepbe aug-cc-pvtz output=wfx scf=(conver=6) int=(grid=ultrafine)

title

0 1
C 0.047747496000000 -0.027382790000000 -1.842785183000000
H -0.032622802000000 0.018053138000000 -2.924285095000000
H -0.811068113000000 -0.552351484000000 -1.436748912000000
H 0.958488740000000 -0.552993073000000 -1.571912649000000
H 0.073349048000000 0.979381441000000 -1.438121866000000

05fluoromethanemethane100_2.wfx

