%nprocs=4
%mem=4GB
#p pbepbe aug-cc-pvtz output=wfx scf=(conver=6) int=(grid=ultrafine)

title

0 1
C 0.005918650000000 -0.003496527000000 1.853878993000000
F -1.172542855000000 0.674817567000000 1.614587488000000
H 0.830709843000000 0.546048289000000 1.407962789000000
H -0.056058041000000 -0.993747823000000 1.410355380000000
H 0.156078035000000 -0.088328739000000 2.927069055000000
C 0.109754095000000 -0.063055805000000 -2.171828270000000
H 0.029383797000000 -0.017619877000000 -3.253328182000000
H -0.749061514000000 -0.588024499000000 -1.765791999000000
H 1.020495339000000 -0.588666088000000 -1.900955736000000
H 0.135355647000000 0.943708426000000 -1.767164953000000

05fluoromethanemethane110.wfx

