%nprocs=4
%mem=4GB
#p pbepbe aug-cc-pvtz output=wfx scf=(conver=6) int=(grid=ultrafine)

title

0 1
C 0.005918650000000 -0.003496527000000 1.853878993000000
F -1.172542855000000 0.674817567000000 1.614587488000000
H 0.830709843000000 0.546048289000000 1.407962789000000
H -0.056058041000000 -0.993747823000000 1.410355380000000
H 0.156078035000000 -0.088328739000000 2.927069055000000
C 0.078965683000000 -0.045342924000000 -2.008447045000000
H -0.001404615000000 0.000093004000000 -3.089946957000000
H -0.779849926000000 -0.570311618000000 -1.602410774000000
H 0.989706927000000 -0.570953207000000 -1.737574511000000
H 0.104567235000000 0.961421307000000 -1.603783728000000

05fluoromethanemethane105.wfx

