%nprocs=4
%mem=4GB
#p pbepbe aug-cc-pvtz output=wfx scf=(conver=6) int=(grid=ultrafine)

title

0 1
C 0.005918650000000 -0.003496527000000 1.853878993000000
F -1.172542855000000 0.674817567000000 1.614587488000000
H 0.830709843000000 0.546048289000000 1.407962789000000
H -0.056058041000000 -0.993747823000000 1.410355380000000
H 0.156078035000000 -0.088328739000000 2.927069055000000
C -0.016240801000000 0.009430315000000 -1.503226051000000
H -0.096611099000000 0.054866243000000 -2.584725963000000
H -0.875056410000000 -0.515538379000000 -1.097189780000000
H 0.894500443000000 -0.516179968000000 -1.232353517000000
H 0.009360751000000 1.016194546000000 -1.098562734000000

05fluoromethanemethane090.wfx

