%nprocs=4
%mem=4GB
#p pbepbe aug-cc-pvtz output=wfx scf=(conver=6) int=(grid=ultrafine)

title

0 1
C 0.109754095000000 -0.063055805000000 -2.171828270000000
H 0.029383797000000 -0.017619877000000 -3.253328182000000
H -0.749061514000000 -0.588024499000000 -1.765791999000000
H 1.020495339000000 -0.588666088000000 -1.900955736000000
H 0.135355647000000 0.943708426000000 -1.767164953000000

05fluoromethanemethane110_2.wfx

