%nprocs=4
%mem=4GB
#p pbepbe aug-cc-pvtz output=wfx scf=(conver=6) int=(grid=ultrafine)

title

0 1
C 0.347002810000000 -0.199547357000000 -3.430807984000000
H 0.266632512000000 -0.154111429000000 -4.512307896000000
H -0.511812799000000 -0.724516051000000 -3.024771713000000
H 1.257744054000000 -0.725157640000000 -3.159935450000000
H 0.372604362000000 0.807216874000000 -3.026144667000000

05fluoromethanemethane150_2.wfx

