%nprocs=4
%mem=4GB
#p pbepbe aug-cc-pvtz output=wfx scf=(conver=6) int=(grid=ultrafine)

title

0 1
C -0.049317708000000 0.028459790000000 -1.327700737000000
H -0.129688006000000 0.073895718000000 -2.409200649000000
H -0.908133317000000 -0.496508904000000 -0.921664466000000
H 0.861423536000000 -0.497150493000000 -1.056828203000000
H -0.023716156000000 1.035224021000000 -0.923037420000000

05fluoromethanemethane085_2.wfx

