%nprocs=4
%mem=4GB
#p pbepbe aug-cc-pvtz output=wfx scf=(conver=6) int=(grid=ultrafine)

title

0 1
C 0.005918650000000 -0.003496527000000 1.853878993000000
F -1.172542855000000 0.674817567000000 1.614587488000000
H 0.830709843000000 0.546048289000000 1.407962789000000
H -0.056058041000000 -0.993747823000000 1.410355380000000
H 0.156078035000000 -0.088328739000000 2.927069055000000
C 0.632758458000000 -0.363945430000000 -4.947193697000000
H 0.552388160000000 -0.318509502000000 -6.028693609000000
H -0.226057151000000 -0.888914124000000 -4.541157426000000
H 1.543499702000000 -0.889555713000000 -4.676321163000000
H 0.658360010000000 0.642818801000000 -4.542530380000000

05fluoromethanemethane200.wfx

