%nprocs=4
%mem=4GB
#p pbepbe aug-cc-pvtz output=wfx scf=(conver=6) int=(grid=ultrafine)

title

0 1
C 0.005918650000000 -0.003496527000000 1.853878993000000
F -1.172542855000000 0.674817567000000 1.614587488000000
H 0.830709843000000 0.546048289000000 1.407962789000000
H -0.056058041000000 -0.993747823000000 1.410355380000000
H 0.156078035000000 -0.088328739000000 2.927069055000000
C 0.200245247000000 -0.115116267000000 -2.652026969000000
H 0.119874949000000 -0.069680339000000 -3.733526881000000
H -0.658570362000000 -0.640084961000000 -2.245990698000000
H 1.110986491000000 -0.640726550000000 -2.381154435000000
H 0.225846799000000 0.891647964000000 -2.247363652000000

05fluoromethanemethane125.wfx

