%nprocs=4
%mem=4GB
#p pbepbe aug-cc-pvtz output=wfx scf=(conver=6) int=(grid=ultrafine)

title

0 1
C -0.083381747000000 0.048057171000000 -1.146937128000000
H -0.163752045000000 0.093493099000000 -2.228437040000000
H -0.942197356000000 -0.476911523000000 -0.740900857000000
H 0.827359497000000 -0.477553112000000 -0.876064594000000
H -0.057780195000000 1.054821402000000 -0.742273811000000

05fluoromethanemethane080_2.wfx

