%nprocs=4
%mem=4GB
#p pbepbe aug-cc-pvtz output=wfx scf=(conver=6) int=(grid=ultrafine)

title

0 1
C 0.052125307000000 -0.031919514000000 1.840660293000000
Cl -1.491715802000000 0.847207403000000 1.755184684000000
H 0.811909110000000 0.554725768000000 1.338264649000000
H -0.067811208000000 -0.989274688000000 1.347792712000000
H 0.311197296000000 -0.173143788000000 2.883203118000000
C -0.027008532000000 0.017139437000000 -1.486218345000000
H -0.099039565000000 0.048792533000000 -2.568842770000000
H -0.893400033000000 -0.495551244000000 -1.080249722000000
H 0.877896129000000 -0.511693786000000 -1.202123652000000
H 0.002789858000000 1.029438913000000 -1.095479661000000

06chloromethanemethane090.wfx

