%nprocs=4
%mem=4GB
#p pbepbe aug-cc-pvtz output=wfx scf=(conver=6) int=(grid=ultrafine)

title

0 1
C 0.026139641000000 -0.012908950000000 -1.662227318000000
H -0.045891392000000 0.018744146000000 -2.744851743000000
H -0.840251860000000 -0.525599631000000 -1.256258695000000
H 0.931044302000000 -0.541742173000000 -1.378132625000000
H 0.055938031000000 0.999390526000000 -1.271488634000000

06chloromethanemethane095_2.wfx

