%nprocs=4
%mem=4GB
#p pbepbe aug-cc-pvtz output=wfx scf=(conver=6) int=(grid=ultrafine)

title

0 1
C 0.052125307000000 -0.031919514000000 1.840660293000000
Cl -1.491715802000000 0.847207403000000 1.755184684000000
H 0.811909110000000 0.554725768000000 1.338264649000000
H -0.067811208000000 -0.989274688000000 1.347792712000000
H 0.311197296000000 -0.173143788000000 2.883203118000000
C 0.988909195000000 -0.557230067000000 -4.850598074000000
H 0.916878162000000 -0.525576971000000 -5.933222499000000
H 0.122517694000000 -1.069920748000000 -4.444629451000000
H 1.893813856000000 -1.086063290000000 -4.566503381000000
H 1.018707585000000 0.455069409000000 -4.459859390000000

06chloromethanemethane200.wfx

