%nprocs=4
%mem=4GB
#p pbepbe aug-cc-pvtz output=wfx scf=(conver=6) int=(grid=ultrafine)

title

0 1
C 0.177025089000000 -0.098215071000000 -2.161909458000000
H 0.104994056000000 -0.066561975000000 -3.244533883000000
H -0.689366412000000 -0.610905752000000 -1.755940835000000
H 1.081929750000000 -0.627048294000000 -1.877814765000000
H 0.206823479000000 0.914084405000000 -1.771170774000000

06chloromethanemethane110_2.wfx

