%nprocs=4
%mem=4GB
#p pbepbe aug-cc-pvtz output=wfx scf=(conver=6) int=(grid=ultrafine)

title

0 1
C 0.988909195000000 -0.557230067000000 -4.850598074000000
H 0.916878162000000 -0.525576971000000 -5.933222499000000
H 0.122517694000000 -1.069920748000000 -4.444629451000000
H 1.893813856000000 -1.086063290000000 -4.566503381000000
H 1.018707585000000 0.455069409000000 -4.459859390000000

06chloromethanemethane200_2.wfx

