%nprocs=4
%mem=4GB
#p pbepbe aug-cc-pvtz output=wfx scf=(conver=6) int=(grid=ultrafine)

title

0 1
C 0.077602956000000 -0.042004770000000 -1.832656606000000
H 0.005571923000000 -0.010351674000000 -2.915281031000000
H -0.788788545000000 -0.554695451000000 -1.426687983000000
H 0.982507617000000 -0.570837993000000 -1.548561913000000
H 0.107401346000000 0.970294706000000 -1.441917922000000

06chloromethanemethane100_2.wfx

