%nprocs=4
%mem=4GB
#p pbepbe aug-cc-pvtz output=wfx scf=(conver=6) int=(grid=ultrafine)

title

0 1
C 0.052125307000000 -0.031919514000000 1.840660293000000
Cl -1.491715802000000 0.847207403000000 1.755184684000000
H 0.811909110000000 0.554725768000000 1.338264649000000
H -0.067811208000000 -0.989274688000000 1.347792712000000
H 0.311197296000000 -0.173143788000000 2.883203118000000
C 0.177025089000000 -0.098215071000000 -2.161909458000000
H 0.104994056000000 -0.066561975000000 -3.244533883000000
H -0.689366412000000 -0.610905752000000 -1.755940835000000
H 1.081929750000000 -0.627048294000000 -1.877814765000000
H 0.206823479000000 0.914084405000000 -1.771170774000000

06chloromethanemethane110.wfx

