%nprocs=4
%mem=4GB
#p pbepbe aug-cc-pvtz output=wfx scf=(conver=6) int=(grid=ultrafine)

title

0 1
C 0.052125307000000 -0.031919514000000 1.840660293000000
Cl -1.491715802000000 0.847207403000000 1.755184684000000
H 0.811909110000000 0.554725768000000 1.338264649000000
H -0.067811208000000 -0.989274688000000 1.347792712000000
H 0.311197296000000 -0.173143788000000 2.883203118000000
C -0.140609484000000 0.081366018000000 -1.110009988000000
H -0.212640517000000 0.113019114000000 -2.192634413000000
H -1.007000985000000 -0.431324663000000 -0.704041365000000
H 0.764295177000000 -0.447467205000000 -0.825915295000000
H -0.110811094000000 1.093665494000000 -0.719271304000000

06chloromethanemethane080.wfx

