%nprocs=4
%mem=4GB
#p pbepbe aug-cc-pvtz output=wfx scf=(conver=6) int=(grid=ultrafine)

title

0 1
C 0.052125307000000 -0.031919514000000 1.840660293000000
Cl -1.491715802000000 0.847207403000000 1.755184684000000
H 0.811909110000000 0.554725768000000 1.338264649000000
H -0.067811208000000 -0.989274688000000 1.347792712000000
H 0.311197296000000 -0.173143788000000 2.883203118000000
C 0.549336098000000 -0.308708582000000 -3.394878996000000
H 0.477305065000000 -0.277055486000000 -4.477503421000000
H -0.317055403000000 -0.821399263000000 -2.988910373000000
H 1.454240759000000 -0.837541805000000 -3.110784303000000
H 0.579134488000000 0.703590894000000 -3.004140312000000

06chloromethanemethane150.wfx

