%nprocs=4
%mem=4GB
#p pbepbe aug-cc-pvtz output=wfx scf=(conver=6) int=(grid=ultrafine)

title

0 1
C 0.000023411000000 0.000105759000000 2.053285735000000
F -1.082526715000000 0.625339904000000 1.589816968000000
F 1.082627682000000 0.625237764000000 1.589922249000000
F -0.000023860000000 -1.249820225000000 1.589264753000000
H -0.000041960000000 -0.000280062000000 3.138092074000000
C -0.000016138000000 -0.000137010000000 -2.354203357000000
H -0.000009686000000 0.000051562000000 -3.439731287000000
H -0.885664609000000 -0.511655020000000 -1.990923236000000
H 0.885721439000000 -0.511499993000000 -1.990912863000000
H -0.000107514000000 1.022496440000000 -1.990637326000000

07trifluoromethanemethane110.wfx

