%nprocs=4
%mem=4GB
#p pbepbe aug-cc-pvtz output=wfx scf=(conver=6) int=(grid=ultrafine)

title

0 1
C 0.000023411000000 0.000105759000000 2.053285735000000
F -1.082526715000000 0.625339904000000 1.589816968000000
F 1.082627682000000 0.625237764000000 1.589922249000000
F -0.000023860000000 -1.249820225000000 1.589264753000000
H -0.000041960000000 -0.000280062000000 3.138092074000000
C -0.000030228000000 -0.000263279000000 -3.771712327000000
H -0.000023776000000 -0.000074707000000 -4.857240257000000
H -0.885678699000000 -0.511781289000000 -3.408432206000000
H 0.885707349000000 -0.511626262000000 -3.408421833000000
H -0.000121604000000 1.022370171000000 -3.408146296000000

07trifluoromethanemethane150.wfx

