%nprocs=4
%mem=4GB
#p pbepbe aug-cc-pvtz output=wfx scf=(conver=6) int=(grid=ultrafine)

title

0 1
C 0.000023411000000 0.000105759000000 2.053285735000000
F -1.082526715000000 0.625339904000000 1.589816968000000
F 1.082627682000000 0.625237764000000 1.589922249000000
F -0.000023860000000 -1.249820225000000 1.589264753000000
H -0.000041960000000 -0.000280062000000 3.138092074000000
C -0.000010738000000 -0.000088611000000 -1.810880600000000
H -0.000004286000000 0.000099961000000 -2.896408530000000
H -0.885659209000000 -0.511606621000000 -1.447600479000000
H 0.885726839000000 -0.511451594000000 -1.447590106000000
H -0.000102114000000 1.022544839000000 -1.447314569000000

07trifluoromethanemethane095.wfx

