%nprocs=4
%mem=4GB
#p pbepbe aug-cc-pvtz output=wfx scf=(conver=6) int=(grid=ultrafine)

title

0 1
C 0.000023411000000 0.000105759000000 2.053285735000000
F -1.082526715000000 0.625339904000000 1.589816968000000
F 1.082627682000000 0.625237764000000 1.589922249000000
F -0.000023860000000 -1.249820225000000 1.589264753000000
H -0.000041960000000 -0.000280062000000 3.138092074000000
C -0.000021461000000 -0.000184713000000 -2.889721919000000
H -0.000015009000000 0.000003859000000 -3.975249849000000
H -0.885669932000000 -0.511702723000000 -2.526441798000000
H 0.885716116000000 -0.511547696000000 -2.526431425000000
H -0.000112837000000 1.022448737000000 -2.526155888000000

07trifluoromethanemethane125.wfx

