%nprocs=4
%mem=4GB
#p pbepbe aug-cc-pvtz output=wfx scf=(conver=6) int=(grid=ultrafine)

title

0 1
C -0.000010738000000 -0.000088611000000 -1.810880600000000
H -0.000004286000000 0.000099961000000 -2.896408530000000
H -0.885659209000000 -0.511606621000000 -1.447600479000000
H 0.885726839000000 -0.511451594000000 -1.447590106000000
H -0.000102114000000 1.022544839000000 -1.447314569000000

07trifluoromethanemethane095_2.wfx

