%nprocs=4
%mem=4GB
#p pbepbe aug-cc-pvtz output=wfx scf=(conver=6) int=(grid=ultrafine)

title

0 1
C -0.000030228000000 -0.000263279000000 -3.771712327000000
H -0.000023776000000 -0.000074707000000 -4.857240257000000
H -0.885678699000000 -0.511781289000000 -3.408432206000000
H 0.885707349000000 -0.511626262000000 -3.408421833000000
H -0.000121604000000 1.022370171000000 -3.408146296000000

07trifluoromethanemethane150_2.wfx

