%nprocs=4
%mem=4GB
#p pbepbe aug-cc-pvtz output=wfx scf=(conver=6) int=(grid=ultrafine)

title

0 1
C 0.000023411000000 0.000105759000000 2.053285735000000
F -1.082526715000000 0.625339904000000 1.589816968000000
F 1.082627682000000 0.625237764000000 1.589922249000000
F -0.000023860000000 -1.249820225000000 1.589264753000000
H -0.000041960000000 -0.000280062000000 3.138092074000000
C -0.000007071000000 -0.000055750000000 -1.441978959000000
H -0.000000619000000 0.000132822000000 -2.527506889000000
H -0.885655542000000 -0.511573760000000 -1.078698838000000
H 0.885730506000000 -0.511418733000000 -1.078688465000000
H -0.000098447000000 1.022577700000000 -1.078412928000000

07trifluoromethanemethane085.wfx

