%nprocs=4
%mem=4GB
#p pbepbe aug-cc-pvtz output=wfx scf=(conver=6) int=(grid=ultrafine)

title

0 1
C 0.000023411000000 0.000105759000000 2.053285735000000
F -1.082526715000000 0.625339904000000 1.589816968000000
F 1.082627682000000 0.625237764000000 1.589922249000000
F -0.000023860000000 -1.249820225000000 1.589264753000000
H -0.000041960000000 -0.000280062000000 3.138092074000000
C -0.000014349000000 -0.000120970000000 -2.174146563000000
H -0.000007897000000 0.000067602000000 -3.259674493000000
H -0.885662820000000 -0.511638980000000 -1.810866442000000
H 0.885723228000000 -0.511483953000000 -1.810856069000000
H -0.000105725000000 1.022512480000000 -1.810580532000000

07trifluoromethanemethane105.wfx

