%nprocs=4
%mem=4GB
#p pbepbe aug-cc-pvtz output=wfx scf=(conver=6) int=(grid=ultrafine)

title

0 1
C -0.000016138000000 -0.000137010000000 -2.354203357000000
H -0.000009686000000 0.000051562000000 -3.439731287000000
H -0.885664609000000 -0.511655020000000 -1.990923236000000
H 0.885721439000000 -0.511499993000000 -1.990912863000000
H -0.000107514000000 1.022496440000000 -1.990637326000000

07trifluoromethanemethane110_2.wfx

