%nprocs=4
%mem=4GB
#p pbepbe aug-cc-pvtz output=wfx scf=(conver=6) int=(grid=ultrafine)

title

0 1
C 0.000023411000000 0.000105759000000 2.053285735000000
F -1.082526715000000 0.625339904000000 1.589816968000000
F 1.082627682000000 0.625237764000000 1.589922249000000
F -0.000023860000000 -1.249820225000000 1.589264753000000
H -0.000041960000000 -0.000280062000000 3.138092074000000
C -0.000012548000000 -0.000104834000000 -1.992998099000000
H -0.000006096000000 0.000083738000000 -3.078526029000000
H -0.885661019000000 -0.511622844000000 -1.629717978000000
H 0.885725029000000 -0.511467817000000 -1.629707605000000
H -0.000103924000000 1.022528616000000 -1.629432068000000

07trifluoromethanemethane100.wfx

