%nprocs=4
%mem=4GB
#p pbepbe aug-cc-pvtz output=wfx scf=(conver=6) int=(grid=ultrafine)

title

0 1
C -0.000007071000000 -0.000055750000000 -1.441978959000000
H -0.000000619000000 0.000132822000000 -2.527506889000000
H -0.885655542000000 -0.511573760000000 -1.078698838000000
H 0.885730506000000 -0.511418733000000 -1.078688465000000
H -0.000098447000000 1.022577700000000 -1.078412928000000

07trifluoromethanemethane085_2.wfx

