%nprocs=4
%mem=4GB
#p pbepbe aug-cc-pvtz output=wfx scf=(conver=6) int=(grid=ultrafine)

title

0 1
C -0.000028509000000 -0.000461929000000 2.158149022000000
Cl -1.454063734000000 0.838777303000000 1.616235012000000
Cl 1.454144531000000 0.838659727000000 1.616208515000000
Cl -0.000087400000000 -1.679795034000000 1.617802938000000
H 0.000005696000000 0.000267325000000 3.239305949000000
C -0.000023976000000 0.000578768000000 -2.247700132000000
H 0.000023712000000 -0.001290243000000 -3.333456186000000
H -0.885501158000000 -0.510155237000000 -1.882568611000000
H 0.885622462000000 -0.510004954000000 -1.882532183000000
H -0.000094119000000 1.023755164000000 -1.885187933000000

08trichloromethanemethane105.wfx

