%nprocs=4
%mem=4GB
#p pbepbe aug-cc-pvtz output=wfx scf=(conver=6) int=(grid=ultrafine)

title

0 1
C -0.000023976000000 0.000578768000000 -2.247700132000000
H 0.000023712000000 -0.001290243000000 -3.333456186000000
H -0.885501158000000 -0.510155237000000 -1.882568611000000
H 0.885622462000000 -0.510004954000000 -1.882532183000000
H -0.000094119000000 1.023755164000000 -1.885187933000000

08trichloromethanemethane105_2.wfx

