%nprocs=4
%mem=4GB
#p pbepbe aug-cc-pvtz output=wfx scf=(conver=6) int=(grid=ultrafine)

title

0 1
C -0.000021421000000 0.000239906000000 -1.240255582000000
H 0.000026267000000 -0.001629105000000 -2.326011636000000
H -0.885498603000000 -0.510494099000000 -0.875124061000000
H 0.885625017000000 -0.510343816000000 -0.875087633000000
H -0.000091564000000 1.023416302000000 -0.877743383000000

08trichloromethanemethane080_2.wfx

