%nprocs=4
%mem=4GB
#p pbepbe aug-cc-pvtz output=wfx scf=(conver=6) int=(grid=ultrafine)

title

0 1
C -0.000033043000000 0.001781404000000 -5.823159317000000
H 0.000014645000000 -0.000087607000000 -6.908915371000000
H -0.885510225000000 -0.508952601000000 -5.458027796000000
H 0.885613395000000 -0.508802318000000 -5.457991368000000
H -0.000103186000000 1.024957800000000 -5.460647118000000

08trichloromethanemethane200_2.wfx

