%nprocs=4
%mem=4GB
#p pbepbe aug-cc-pvtz output=wfx scf=(conver=6) int=(grid=ultrafine)

title

0 1
C -0.000028509000000 -0.000461929000000 2.158149022000000
Cl -1.454063734000000 0.838777303000000 1.616235012000000
Cl 1.454144531000000 0.838659727000000 1.616208515000000
Cl -0.000087400000000 -1.679795034000000 1.617802938000000
H 0.000005696000000 0.000267325000000 3.239305949000000
C -0.000025935000000 0.000838583000000 -3.020135282000000
H 0.000021753000000 -0.001030428000000 -4.105891336000000
H -0.885503117000000 -0.509895422000000 -2.655003761000000
H 0.885620503000000 -0.509745139000000 -2.654967333000000
H -0.000096078000000 1.024014979000000 -2.657623083000000

08trichloromethanemethane125.wfx

