%nprocs=4
%mem=4GB
#p pbepbe aug-cc-pvtz output=wfx scf=(conver=6) int=(grid=ultrafine)

title

0 1
C 0.250211388000000 -0.141261283000000 2.278305952000000
F 0.055015573000000 -0.060688554000000 0.911538424000000
H 1.189310250000000 0.342978795000000 2.531275149000000
H 0.282891774000000 -1.187166859000000 2.570525524000000
H -0.571443596000000 0.358513497000000 2.783864006000000
C -0.203850859000000 0.112909924000000 -1.843742252000000
F -0.334707048000000 0.216092369000000 -3.217085484000000
H -1.055043867000000 -0.429687861000000 -1.442976456000000
H 0.713233263000000 -0.420320350000000 -1.610862375000000
H -0.168050728000000 1.108643283000000 -1.411665167000000

09fluoromethanedimer090.wfx

