%nprocs=4
%mem=4GB
#p pbepbe aug-cc-pvtz output=wfx scf=(conver=6) int=(grid=ultrafine)

title

0 1
C 0.250211388000000 -0.141261283000000 2.278305952000000
F 0.055015573000000 -0.060688554000000 0.911538424000000
H 1.189310250000000 0.342978795000000 2.531275149000000
H 0.282891774000000 -1.187166859000000 2.570525524000000
H -0.571443596000000 0.358513497000000 2.783864006000000
C -0.312494045000000 0.181851828000000 -2.911913043000000
F -0.443350234000000 0.285034273000000 -4.285256275000000
H -1.163687053000000 -0.360745957000000 -2.511147247000000
H 0.604590077000000 -0.351378446000000 -2.679033166000000
H -0.276693914000000 1.177585187000000 -2.479835958000000

09fluoromethanedimer125.wfx

