%nprocs=4
%mem=4GB
#p pbepbe aug-cc-pvtz output=wfx scf=(conver=6) int=(grid=ultrafine)

title

0 1
C 0.250211388000000 -0.141261283000000 2.278305952000000
F 0.055015573000000 -0.060688554000000 0.911538424000000
H 1.189310250000000 0.342978795000000 2.531275149000000
H 0.282891774000000 -1.187166859000000 2.570525524000000
H -0.571443596000000 0.358513497000000 2.783864006000000
C -0.219678247000000 0.122953539000000 -1.999355822000000
F -0.350534436000000 0.226135984000000 -3.372699054000000
H -1.070871255000000 -0.419644246000000 -1.598590026000000
H 0.697405875000000 -0.410276735000000 -1.766475945000000
H -0.183878116000000 1.118686898000000 -1.567278737000000

09fluoromethanedimer095.wfx

