%nprocs=4
%mem=4GB
#p pbepbe aug-cc-pvtz output=wfx scf=(conver=6) int=(grid=ultrafine)

title

0 1
C -0.187861193000000 0.102763333000000 -1.686533184000000
F -0.318717382000000 0.205945778000000 -3.059876416000000
H -1.039054201000000 -0.439834452000000 -1.285767388000000
H 0.729222929000000 -0.430466941000000 -1.453653307000000
H -0.152061062000000 1.098496692000000 -1.254456099000000

09fluoromethanedimer085_2.wfx

