%nprocs=4
%mem=4GB
#p pbepbe aug-cc-pvtz output=wfx scf=(conver=6) int=(grid=ultrafine)

title

0 1
C -0.219678247000000 0.122953539000000 -1.999355822000000
F -0.350534436000000 0.226135984000000 -3.372699054000000
H -1.070871255000000 -0.419644246000000 -1.598590026000000
H 0.697405875000000 -0.410276735000000 -1.766475945000000
H -0.183878116000000 1.118686898000000 -1.567278737000000

09fluoromethanedimer095_2.wfx

