%nprocs=4
%mem=4GB
#p pbepbe aug-cc-pvtz output=wfx scf=(conver=6) int=(grid=ultrafine)

title

0 1
C -0.266452645000000 0.152635253000000 -2.459237817000000
F -0.397308834000000 0.255817698000000 -3.832581049000000
H -1.117645653000000 -0.389962532000000 -2.058472021000000
H 0.650631477000000 -0.380595021000000 -2.226357940000000
H -0.230652514000000 1.148368612000000 -2.027160732000000

09fluoromethanedimer110_2.wfx

