%nprocs=4
%mem=4GB
#p pbepbe aug-cc-pvtz output=wfx scf=(conver=6) int=(grid=ultrafine)

title

0 1
C 0.250211388000000 -0.141261283000000 2.278305952000000
F 0.055015573000000 -0.060688554000000 0.911538424000000
H 1.189310250000000 0.342978795000000 2.531275149000000
H 0.282891774000000 -1.187166859000000 2.570525524000000
H -0.571443596000000 0.358513497000000 2.783864006000000
C -0.388243394000000 0.229920230000000 -3.656674352000000
F -0.519099583000000 0.333102675000000 -5.030017584000000
H -1.239436402000000 -0.312677555000000 -3.255908556000000
H 0.528840728000000 -0.303310044000000 -3.423794475000000
H -0.352443263000000 1.225653589000000 -3.224597267000000

09fluoromethanedimer150.wfx

