%nprocs=4
%mem=4GB
#p pbepbe aug-cc-pvtz output=wfx scf=(conver=6) int=(grid=ultrafine)

title

0 1
C 0.250211388000000 -0.141261283000000 2.278305952000000
F 0.055015573000000 -0.060688554000000 0.911538424000000
H 1.189310250000000 0.342978795000000 2.531275149000000
H 0.282891774000000 -1.187166859000000 2.570525524000000
H -0.571443596000000 0.358513497000000 2.783864006000000
C -0.537785093000000 0.324815177000000 -5.126955922000000
F -0.668641282000000 0.427997622000000 -6.500299154000000
H -1.388978101000000 -0.217782608000000 -4.726190126000000
H 0.379299029000000 -0.208415097000000 -4.894076045000000
H -0.501984962000000 1.320548536000000 -4.694878837000000

09fluoromethanedimer200.wfx

