%nprocs=4
%mem=4GB
#p pbepbe aug-cc-pvtz output=wfx scf=(conver=6) int=(grid=ultrafine)

title

0 1
C 0.301152114000000 -0.173118099000000 2.764480435000000
Cl -0.024870834000000 -0.077582132000000 1.017161127000000
H 1.247502252000000 0.314602623000000 2.964654708000000
H 0.346131151000000 -1.217442126000000 3.048836143000000
H -0.501709016000000 0.328185531000000 3.291345152000000
C -0.551367228000000 0.374527373000000 -5.809410101000000
Cl -0.734023794000000 0.493941139000000 -7.575923036000000
H -1.400367584000000 -0.167161207000000 -5.409830259000000
H 0.368426547000000 -0.154587061000000 -5.591152530000000
H -0.515940558000000 1.375503026000000 -5.396521441000000

10chloromethanedimer200.wfx

