%nprocs=4
%mem=4GB
#p pbepbe aug-cc-pvtz output=wfx scf=(conver=6) int=(grid=ultrafine)

title

0 1
C -0.243340548000000 0.143913382000000 -2.299042009000000
CL -0.425997114000000 0.263327148000000 -4.065554944000000
H -1.092340904000000 -0.397775198000000 -1.899462167000000
H 0.676453227000000 -0.385201052000000 -2.080784438000000
H -0.207913878000000 1.144889035000000 -1.886153349000000

10chloromethanedimer095_2.wfx

