%nprocs=4
%mem=4GB
#p pbepbe aug-cc-pvtz output=wfx scf=(conver=6) int=(grid=ultrafine)

title

0 1
C -0.551367228000000 0.374527373000000 -5.809410101000000
CL -0.734023794000000 0.493941139000000 -7.575923036000000
H -1.400367584000000 -0.167161207000000 -5.409830259000000
H 0.368426547000000 -0.154587061000000 -5.591152530000000
H -0.515940558000000 1.375503026000000 -5.396521441000000

10chloromethanedimer200_2.wfx

