%nprocs=4
%mem=4GB
#p pbepbe aug-cc-pvtz output=wfx scf=(conver=6) int=(grid=ultrafine)

title

0 1
C 0.301152114000000 -0.173118099000000 2.764480435000000
Cl -0.024870834000000 -0.077582132000000 1.017161127000000
H 1.247502252000000 0.314602623000000 2.964654708000000
H 0.346131151000000 -1.217442126000000 3.048836143000000
H -0.501709016000000 0.328185531000000 3.291345152000000
C -0.332603474000000 0.210742916000000 -3.316310144000000
Cl -0.515260040000000 0.330156682000000 -5.082823079000000
H -1.181603830000000 -0.330945664000000 -2.916730302000000
H 0.587190301000000 -0.318371518000000 -3.098052573000000
H -0.297176804000000 1.211718569000000 -2.903421484000000

10chloromethanedimer125.wfx

