%nprocs=4
%mem=4GB
#p pbepbe aug-cc-pvtz output=wfx scf=(conver=6) int=(grid=ultrafine)

title

0 1
C 0.301152114000000 -0.173118099000000 2.764480435000000
Cl -0.024870834000000 -0.077582132000000 1.017161127000000
H 1.247502252000000 0.314602623000000 2.964654708000000
H 0.346131151000000 -1.217442126000000 3.048836143000000
H -0.501709016000000 0.328185531000000 3.291345152000000
C -0.228235727000000 0.132604676000000 -2.126902751000000
Cl -0.410892293000000 0.252018442000000 -3.893415686000000
H -1.077236083000000 -0.409083904000000 -1.727322909000000
H 0.691558048000000 -0.396509758000000 -1.908645180000000
H -0.192809057000000 1.133580329000000 -1.714014091000000

10chloromethanedimer090.wfx

