%nprocs=4
%mem=4GB
#p pbepbe aug-cc-pvtz output=wfx scf=(conver=6) int=(grid=ultrafine)

title

0 1
C -0.228235727000000 0.132604676000000 -2.126902751000000
CL -0.410892293000000 0.252018442000000 -3.893415686000000
H -1.077236083000000 -0.409083904000000 -1.727322909000000
H 0.691558048000000 -0.396509758000000 -1.908645180000000
H -0.192809057000000 1.133580329000000 -1.714014091000000

10chloromethanedimer090_2.wfx

