%nprocs=4
%mem=4GB
#p pbepbe aug-cc-pvtz output=wfx scf=(conver=6) int=(grid=ultrafine)

title

0 1
C 0.301152114000000 -0.173118099000000 2.764480435000000
Cl -0.024870834000000 -0.077582132000000 1.017161127000000
H 1.247502252000000 0.314602623000000 2.964654708000000
H 0.346131151000000 -1.217442126000000 3.048836143000000
H -0.501709016000000 0.328185531000000 3.291345152000000
C -0.405954921000000 0.265659815000000 -4.152246112000000
Cl -0.588611487000000 0.385073581000000 -5.918759047000000
H -1.254955277000000 -0.276028765000000 -3.752666270000000
H 0.513838854000000 -0.263454619000000 -3.933988541000000
H -0.370528251000000 1.266635468000000 -3.739357452000000

10chloromethanedimer150.wfx

