%nprocs=4
%mem=4GB
#p pbepbe aug-cc-pvtz output=wfx scf=(conver=6) int=(grid=ultrafine)

title

0 1
C -0.197707281000000 0.109748582000000 -1.778991069000000
CL -0.380363847000000 0.229162348000000 -3.545504004000000
H -1.046707637000000 -0.431939998000000 -1.379411227000000
H 0.722086494000000 -0.419365852000000 -1.560733498000000
H -0.162280611000000 1.110724235000000 -1.366102409000000

10chloromethanedimer080_2.wfx

