%nprocs=4
%mem=4GB
#p pbepbe aug-cc-pvtz output=wfx scf=(conver=6) int=(grid=ultrafine)

title

0 1
C 0.301152114000000 -0.173118099000000 2.764480435000000
Cl -0.024870834000000 -0.077582132000000 1.017161127000000
H 1.247502252000000 0.314602623000000 2.964654708000000
H 0.346131151000000 -1.217442126000000 3.048836143000000
H -0.501709016000000 0.328185531000000 3.291345152000000
C -0.273314670000000 0.166354464000000 -2.640636447000000
Cl -0.455971236000000 0.285768230000000 -4.407149382000000
H -1.122315026000000 -0.375334116000000 -2.241056605000000
H 0.646479105000000 -0.362759970000000 -2.422378876000000
H -0.237888000000000 1.167330117000000 -2.227747787000000

10chloromethanedimer105.wfx

