%nprocs=4
%mem=4GB
#p pbepbe aug-cc-pvtz output=wfx scf=(conver=6) int=(grid=ultrafine)

title

0 1
C 0.301152114000000 -0.173118099000000 2.764480435000000
Cl -0.024870834000000 -0.077582132000000 1.017161127000000
H 1.247502252000000 0.314602623000000 2.964654708000000
H 0.346131151000000 -1.217442126000000 3.048836143000000
H -0.501709016000000 0.328185531000000 3.291345152000000
C -0.243340548000000 0.143913382000000 -2.299042009000000
Cl -0.425997114000000 0.263327148000000 -4.065554944000000
H -1.092340904000000 -0.397775198000000 -1.899462167000000
H 0.676453227000000 -0.385201052000000 -2.080784438000000
H -0.207913878000000 1.144889035000000 -1.886153349000000

10chloromethanedimer095.wfx

