%nprocs=4
%mem=4GB
#p pbepbe aug-cc-pvtz output=wfx scf=(conver=6) int=(grid=ultrafine)

title

0 1
F -1.914074031000000 -1.171208027000000 -0.110672709000000
H -2.180664731000000 1.398938308000000 -0.409375369000000
C 0.373446598000000 -0.776856318000000 0.213048434000000
C -0.901105553000000 -0.295713511000000 -0.038342168000000
C -1.178590841000000 1.051075840000000 -0.215317349000000
C -0.111215305000000 1.930588158000000 -0.127725254000000
C 1.187438475000000 1.517317904000000 0.123482484000000
C 1.394209663000000 0.156584712000000 0.290367081000000
F -0.346665186000000 3.242328465000000 -0.288420034000000
H 2.000411788000000 2.222856141000000 0.189254724000000
H 0.559538929000000 -1.828333656000000 0.360285918000000
F 2.639006191000000 -0.274021355000000 0.541291643000000
H -1.924585906000000 -2.250512280000000 2.925796434000000
H -2.391347400000000 0.172872092000000 2.746535388000000
C 0.185723024000000 -1.980404285000000 3.237667313000000
C -1.117596057000000 -1.536620608000000 3.019013681000000
C -1.380287735000000 -0.171405376000000 2.917506977000000
C -0.340737389000000 0.749754705000000 3.035302755000000
C 0.962301721000000 0.305165910000000 3.253316918000000
C 1.225972299000000 -1.059834722000000 3.355014782000000
H -0.544813103000000 1.809069618000000 2.955735588000000
H 1.769623359000000 1.019477860000000 3.343169798000000
H 0.389560322000000 -3.039653665000000 3.319255508000000
H 2.237497041000000 -1.403720645000000 3.522557547000000

11F3benben090.wfx

