%nprocs=4
%mem=4GB
#p pbepbe aug-cc-pvtz output=wfx scf=(conver=6) int=(grid=ultrafine)

title

0 1
H -2.023345973000000 -2.215178875000000 3.566092949000000
C -1.216356124000000 -1.501287203000000 3.659310196000000
C 0.086962957000000 -1.945070880000000 3.877963828000000
C -1.479047802000000 -0.136071971000000 3.557803492000000
C 1.127212232000000 -1.024501317000000 3.995311297000000
H 0.290800255000000 -3.004320260000000 3.959552023000000
H -2.490107467000000 0.208205497000000 3.386831903000000
C -0.439497456000000 0.785088110000000 3.675599270000000
C 0.863541654000000 0.340499315000000 3.893613433000000
H 2.138736974000000 -1.368387240000000 4.162854062000000
H -0.643573170000000 1.844403023000000 3.596032103000000
H 1.670863292000000 1.054811265000000 3.983466313000000

11F3benben110_2.wfx

