%nprocs=4
%mem=4GB
#p pbepbe aug-cc-pvtz output=wfx scf=(conver=6) int=(grid=ultrafine)

title

0 1
H -1.998673344000000 -2.224006005000000 3.406131549000000
C -1.191683495000000 -1.510114333000000 3.499348796000000
C 0.111635586000000 -1.953898010000000 3.718002428000000
C -1.454375173000000 -0.144899101000000 3.397842092000000
C 1.151884861000000 -1.033328447000000 3.835349897000000
H 0.315472884000000 -3.013147390000000 3.799590623000000
H -2.465434838000000 0.199378367000000 3.226870503000000
C -0.414824827000000 0.776260980000000 3.515637870000000
C 0.888214283000000 0.331672185000000 3.733652033000000
H 2.163409603000000 -1.377214370000000 4.002892662000000
H -0.618900541000000 1.835575893000000 3.436070703000000
H 1.695535921000000 1.045984135000000 3.823504913000000

11F3benben105_2.wfx

