%nprocs=4
%mem=4GB
#p pbepbe aug-cc-pvtz output=wfx scf=(conver=6) int=(grid=ultrafine)

title

0 1
H -2.097313929000000 -2.188715348000000 4.045653417000000
C -1.290324080000000 -1.474823676000000 4.138870664000000
C 0.012995001000000 -1.918607353000000 4.357524296000000
C -1.553015758000000 -0.109608444000000 4.037363960000000
C 1.053244276000000 -0.998037790000000 4.474871765000000
H 0.216832299000000 -2.977856733000000 4.439112491000000
H -2.564075423000000 0.234669024000000 3.866392371000000
C -0.513465412000000 0.811551637000000 4.155159738000000
C 0.789573698000000 0.366962842000000 4.373173901000000
H 2.064769018000000 -1.341923713000000 4.642414530000000
H -0.717541126000000 1.870866550000000 4.075592571000000
H 1.596895336000000 1.081274792000000 4.463026781000000

11F3benben125_2.wfx

