%nprocs=4
%mem=4GB
#p pbepbe aug-cc-pvtz output=wfx scf=(conver=6) int=(grid=ultrafine)

title

0 1
H -1.899860010000000 -2.259358467000000 2.765489689000000
C -1.092870161000000 -1.545466795000000 2.858706936000000
C 0.210448920000000 -1.989250472000000 3.077360568000000
C -1.355561839000000 -0.180251563000000 2.757200232000000
C 1.250698195000000 -1.068680909000000 3.194708037000000
H 0.414286218000000 -3.048499852000000 3.158948763000000
H -2.366621504000000 0.164025905000000 2.586228643000000
C -0.316011493000000 0.740908518000000 2.874996010000000
C 0.987027617000000 0.296319723000000 3.093010173000000
H 2.262222937000000 -1.412566832000000 3.362250802000000
H -0.520087207000000 1.800223431000000 2.795428843000000
H 1.794349255000000 1.010631673000000 3.182863053000000

11F3benben085_2.wfx

