%nprocs=4
%mem=4GB
#p pbepbe aug-cc-pvtz output=wfx scf=(conver=6) int=(grid=ultrafine)

title

0 1
H -1.705010929000000 -1.318559522000000 3.544527795000000
C -0.872758914000000 -0.635526151000000 3.651502952000000
C 0.423732776000000 -1.131468813000000 3.786187595000000
C -1.096935766000000 0.740907865000000 3.662203790000000
C 1.495363264000000 -0.251274354000000 3.932892341000000
H 0.597885618000000 -2.199264777000000 3.780102404000000
H -2.102865726000000 1.126077463000000 3.560220201000000
C -0.025163123000000 1.620953755000000 3.809028666000000
C 1.270625842000000 1.124611813000000 3.944253638000000
H 2.500635087000000 -0.636273990000000 4.036508584000000
H -0.199395437000000 2.688277990000000 3.816783673000000
H 2.101837399000000 1.807104902000000 4.055833573000000

12F6benben110_2.wfx

