%nprocs=4
%mem=4GB
#p pbepbe aug-cc-pvtz output=wfx scf=(conver=6) int=(grid=ultrafine)

title

0 1
F -2.268328468000000 -1.958202889000000 -0.323025092000000
F -2.703690585000000 0.725550383000000 -0.253119040000000
C 0.039970416000000 -1.620649062000000 0.000627529000000
C -1.246714568000000 -1.122331457000000 -0.158188956000000
C -1.468960632000000 0.248281616000000 -0.123448223000000
C -0.404843176000000 1.120110725000000 0.068321788000000
C 0.882869160000000 0.622303553000000 0.223239994000000
C 1.104164281000000 -0.748842052000000 0.192245986000000
F -0.620157741000000 2.430732722000000 0.113060107000000
F 1.901232288000000 1.456424170000000 0.399377483000000
F 0.250821528000000 -2.933836485000000 -0.010169125000000
F 2.333223855000000 -1.227390582000000 0.354782679000000
H -1.736305009000000 -1.306509400000000 2.865256849000000
H -2.134159806000000 1.138127585000000 2.880949255000000
C 0.392438696000000 -1.119418691000000 3.106916649000000
C -0.904052994000000 -0.623476029000000 2.972232006000000
C -1.128229846000000 0.752957987000000 2.982932844000000
C -0.056457203000000 1.633003877000000 3.129757720000000
C 1.239331762000000 1.136661935000000 3.264982692000000
C 1.464069184000000 -0.239224232000000 3.253621395000000
H -0.230689517000000 2.700328112000000 3.137512727000000
H 2.070543319000000 1.819155024000000 3.376562627000000
H 0.566591538000000 -2.187214655000000 3.100831458000000
H 2.469341007000000 -0.624223868000000 3.357237638000000

12F6benben090.wfx

