%nprocs=4
%mem=4GB
#p pbepbe aug-cc-pvtz output=wfx scf=(conver=6) int=(grid=ultrafine)

title

0 1
F -2.268328468000000 -1.958202889000000 -0.323025092000000
F -2.703690585000000 0.725550383000000 -0.253119040000000
C 0.039970416000000 -1.620649062000000 0.000627529000000
C -1.246714568000000 -1.122331457000000 -0.158188956000000
C -1.468960632000000 0.248281616000000 -0.123448223000000
C -0.404843176000000 1.120110725000000 0.068321788000000
C 0.882869160000000 0.622303553000000 0.223239994000000
C 1.104164281000000 -0.748842052000000 0.192245986000000
F -0.620157741000000 2.430732722000000 0.113060107000000
F 1.901232288000000 1.456424170000000 0.399377483000000
F 0.250821528000000 -2.933836485000000 -0.010169125000000
F 2.333223855000000 -1.227390582000000 0.354782679000000
H -1.720607618000000 -1.312553849000000 3.205985240000000
H -2.118462415000000 1.132083136000000 3.221677646000000
C 0.408136087000000 -1.125463140000000 3.447645040000000
C -0.888355603000000 -0.629520478000000 3.312960397000000
C -1.112532455000000 0.746913538000000 3.323661235000000
C -0.040759812000000 1.626959428000000 3.470486111000000
C 1.255029153000000 1.130617486000000 3.605711083000000
C 1.479766575000000 -0.245268681000000 3.594349786000000
H -0.214992126000000 2.694283663000000 3.478241118000000
H 2.086240710000000 1.813110575000000 3.717291018000000
H 0.582288929000000 -2.193259104000000 3.441559849000000
H 2.485038398000000 -0.630268317000000 3.697966029000000

12F6benben100.wfx

