%nprocs=4
%mem=4GB
#p pbepbe aug-cc-pvtz output=wfx scf=(conver=6) int=(grid=ultrafine)

title

0 1
F -2.268328468000000 -1.958202889000000 -0.323025092000000
F -2.703690585000000 0.725550383000000 -0.253119040000000
C 0.039970416000000 -1.620649062000000 0.000627529000000
C -1.246714568000000 -1.122331457000000 -0.158188956000000
C -1.468960632000000 0.248281616000000 -0.123448223000000
C -0.404843176000000 1.120110725000000 0.068321788000000
C 0.882869160000000 0.622303553000000 0.223239994000000
C 1.104164281000000 -0.748842052000000 0.192245986000000
F -0.620157741000000 2.430732722000000 0.113060107000000
F 1.901232288000000 1.456424170000000 0.399377483000000
F 0.250821528000000 -2.933836485000000 -0.010169125000000
F 2.333223855000000 -1.227390582000000 0.354782679000000
H -1.752162035000000 -1.300403481000000 2.521063403000000
H -2.150016832000000 1.144233504000000 2.536755809000000
C 0.376581670000000 -1.113312772000000 2.762723203000000
C -0.919910020000000 -0.617370110000000 2.628038560000000
C -1.144086872000000 0.759063906000000 2.638739398000000
C -0.072314229000000 1.639109796000000 2.785564274000000
C 1.223474736000000 1.142767854000000 2.920789246000000
C 1.448212158000000 -0.233118313000000 2.909427949000000
H -0.246546543000000 2.706434031000000 2.793319281000000
H 2.054686293000000 1.825260943000000 3.032369181000000
H 0.550734512000000 -2.181108736000000 2.756638012000000
H 2.453483981000000 -0.618117949000000 3.013044192000000

12F6benben080.wfx

