%nprocs=4
%mem=4GB
#p pbepbe aug-cc-pvtz output=wfx scf=(conver=6) int=(grid=ultrafine)

title

0 1
H -1.566827405000000 -1.371768577000000 6.543946624000000
C -0.734575390000000 -0.688735206000000 6.650921781000000
C 0.561916300000000 -1.184677868000000 6.785606424000000
C -0.958752242000000 0.687698810000000 6.661622619000000
C 1.633546788000000 -0.304483409000000 6.932311170000000
H 0.736069142000000 -2.252473832000000 6.779521233000000
H -1.964682202000000 1.072868408000000 6.559639030000000
C 0.113020401000000 1.567744700000000 6.808447495000000
C 1.408809366000000 1.071402758000000 6.943672467000000
H 2.638818611000000 -0.689483045000000 7.035927413000000
H -0.061211913000000 2.635068935000000 6.816202502000000
H 2.240020923000000 1.753895847000000 7.055252402000000

12F6benben200_2.wfx

