%nprocs=4
%mem=4GB
#p pbepbe aug-cc-pvtz output=wfx scf=(conver=6) int=(grid=ultrafine)

title

0 1
H -1.643283699000000 -1.342328257000000 4.884382287000000
C -0.811031684000000 -0.659294886000000 4.991357444000000
C 0.485460006000000 -1.155237548000000 5.126042087000000
C -1.035208536000000 0.717139130000000 5.002058282000000
C 1.557090494000000 -0.275043089000000 5.272746833000000
H 0.659612848000000 -2.223033512000000 5.119956896000000
H -2.041138496000000 1.102308728000000 4.900074693000000
C 0.036564107000000 1.597185020000000 5.148883158000000
C 1.332353072000000 1.100843078000000 5.284108130000000
H 2.562362317000000 -0.660042725000000 5.376363076000000
H -0.137668207000000 2.664509255000000 5.156638165000000
H 2.163564629000000 1.783336167000000 5.395688065000000

12F6benben150_2.wfx

