%nprocs=4
%mem=4GB
#p pbepbe aug-cc-pvtz output=wfx scf=(conver=6) int=(grid=ultrafine)

title

0 1
F -2.268328468000000 -1.958202889000000 -0.323025092000000
C -1.246714568000000 -1.122331457000000 -0.158188956000000
C 0.039970416000000 -1.620649062000000 0.000627529000000
C -1.468960632000000 0.248281616000000 -0.123448223000000
C 1.104164281000000 -0.748842052000000 0.192245986000000
F 0.250821528000000 -2.933836485000000 -0.010169125000000
F -2.703690585000000 0.725550383000000 -0.253119040000000
C -0.404843176000000 1.120110725000000 0.068321788000000
C 0.882869160000000 0.622303553000000 0.223239994000000
F 2.333223855000000 -1.227390582000000 0.354782679000000
F -0.620157741000000 2.430732722000000 0.113060107000000
F 1.901232288000000 1.456424170000000 0.399377483000000

12F6benben110_1.wfx

