%nprocs=4
%mem=4GB
#p pbepbe aug-cc-pvtz output=wfx scf=(conver=6) int=(grid=ultrafine)

title

0 1
F -2.268328468000000 -1.958202889000000 -0.323025092000000
F -2.703690585000000 0.725550383000000 -0.253119040000000
C 0.039970416000000 -1.620649062000000 0.000627529000000
C -1.246714568000000 -1.122331457000000 -0.158188956000000
C -1.468960632000000 0.248281616000000 -0.123448223000000
C -0.404843176000000 1.120110725000000 0.068321788000000
C 0.882869160000000 0.622303553000000 0.223239994000000
C 1.104164281000000 -0.748842052000000 0.192245986000000
F -0.620157741000000 2.430732722000000 0.113060107000000
F 1.901232288000000 1.456424170000000 0.399377483000000
F 0.250821528000000 -2.933836485000000 -0.010169125000000
F 2.333223855000000 -1.227390582000000 0.354782679000000
H -1.681768153000000 -1.327509403000000 4.049036705000000
H -2.079622950000000 1.117127582000000 4.064729111000000
C 0.446975552000000 -1.140418694000000 4.290696505000000
C -0.849516138000000 -0.644476032000000 4.156011862000000
C -1.073692990000000 0.731957984000000 4.166712700000000
C -0.001920347000000 1.612003874000000 4.313537576000000
C 1.293868618000000 1.115661932000000 4.448762548000000
C 1.518606040000000 -0.260224235000000 4.437401251000000
H -0.176152661000000 2.679328109000000 4.321292583000000
H 2.125080175000000 1.798155021000000 4.560342483000000
H 0.621128394000000 -2.208214658000000 4.284611314000000
H 2.523877863000000 -0.645223871000000 4.541017494000000

12F6benben125.wfx

