%nprocs=4
%mem=4GB
#p pbepbe aug-cc-pvtz output=wfx scf=(conver=6) int=(grid=ultrafine)

title

0 1
F -2.268328468000000 -1.958202889000000 -0.323025092000000
F -2.703690585000000 0.725550383000000 -0.253119040000000
C 0.039970416000000 -1.620649062000000 0.000627529000000
C -1.246714568000000 -1.122331457000000 -0.158188956000000
C -1.468960632000000 0.248281616000000 -0.123448223000000
C -0.404843176000000 1.120110725000000 0.068321788000000
C 0.882869160000000 0.622303553000000 0.223239994000000
C 1.104164281000000 -0.748842052000000 0.192245986000000
F -0.620157741000000 2.430732722000000 0.113060107000000
F 1.901232288000000 1.456424170000000 0.399377483000000
F 0.250821528000000 -2.933836485000000 -0.010169125000000
F 2.333223855000000 -1.227390582000000 0.354782679000000
H -1.744210398000000 -1.303465344000000 2.693662053000000
H -2.142065195000000 1.141171641000000 2.709354459000000
C 0.384533307000000 -1.116374635000000 2.935321853000000
C -0.911958383000000 -0.620431973000000 2.800637210000000
C -1.136135235000000 0.756002043000000 2.811338048000000
C -0.064362592000000 1.636047933000000 2.958162924000000
C 1.231426373000000 1.139705991000000 3.093387896000000
C 1.456163795000000 -0.236180176000000 3.082026599000000
H -0.238594906000000 2.703372168000000 2.965917931000000
H 2.062637930000000 1.822199080000000 3.204967831000000
H 0.558686149000000 -2.184170599000000 2.929236662000000
H 2.461435618000000 -0.621179812000000 3.185642842000000

12F6benben085.wfx

