%nprocs=4
%mem=4GB
#p pbepbe aug-cc-pvtz output=wfx scf=(conver=6) int=(grid=ultrafine)

title

0 1
H -1.744210398000000 -1.303465344000000 2.693662053000000
C -0.911958383000000 -0.620431973000000 2.800637210000000
C 0.384533307000000 -1.116374635000000 2.935321853000000
C -1.136135235000000 0.756002043000000 2.811338048000000
C 1.456163795000000 -0.236180176000000 3.082026599000000
H 0.558686149000000 -2.184170599000000 2.929236662000000
H -2.142065195000000 1.141171641000000 2.709354459000000
C -0.064362592000000 1.636047933000000 2.958162924000000
C 1.231426373000000 1.139705991000000 3.093387896000000
H 2.461435618000000 -0.621179812000000 3.185642842000000
H -0.238594906000000 2.703372168000000 2.965917931000000
H 2.062637930000000 1.822199080000000 3.204967831000000

12F6benben085_2.wfx

