%nprocs=4
%mem=4GB
#p pbepbe aug-cc-pvtz output=wfx scf=(conver=6) int=(grid=ultrafine)

title

0 1
O 6.674014471000000 1.144216904000000 1.816680141000000
C 6.970969144000000 0.505675181000000 0.831620693000000
H 8.020705381000001 0.321864203000000 0.554827430000000
H 6.206594679000000 0.078687778000000 0.166280257000000

13chloromethanefmdh150_2.wfx

