%nprocs=4
%mem=4GB
#p pbepbe aug-cc-pvtz output=wfx scf=(conver=6) int=(grid=ultrafine)

title

0 1
O 5.021132775000000 0.895454957000000 1.419893847000000
C 5.318087448000000 0.256913234000000 0.434834399000000
H 6.367823685000000 0.073102256000000 0.158041136000000
H 4.553712983000000 -0.170074169000000 -0.230506037000000

13chloromethanefmdh100_2.wfx

