%nprocs=4
%mem=4GB
#p pbepbe aug-cc-pvtz output=wfx scf=(conver=6) int=(grid=ultrafine)

title

0 1
C 0.179810349000000 -0.077197552000000 -0.118024640000000
Cl 1.722679479000000 0.399031247000000 0.628076100000000
H 0.130360699000000 -1.159076002000000 -0.155096513000000
H -0.630477191000000 0.314338739000000 0.485507040000000
H 0.134959164000000 0.335748179000000 -1.118887999000000
O 5.197775228000000 0.922039994000000 1.462298155000000
C 5.494729901000000 0.283498271000000 0.477238707000000
H 6.544466138000000 0.099687293000000 0.200445444000000
H 4.730355436000000 -0.143489132000000 -0.188101729000000

13chloromethanefmdh105.wfx

