%nprocs=4
%mem=4GB
#p pbepbe aug-cc-pvtz output=wfx scf=(conver=6) int=(grid=ultrafine)

title

0 1
C 0.179810349000000 -0.077197552000000 -0.118024640000000
Cl 1.722679479000000 0.399031247000000 0.628076100000000
H 0.130360699000000 -1.159076002000000 -0.155096513000000
H -0.630477191000000 0.314338739000000 0.485507040000000
H 0.134959164000000 0.335748179000000 -1.118887999000000
O 4.252018674000000 0.779701772000000 1.235262403000000
C 4.548973347000000 0.141160049000000 0.250202955000000
H 5.598709584000000 -0.042650929000000 -0.026590308000000
H 3.784598882000000 -0.285827354000000 -0.415137481000000

13chloromethanefmdh080.wfx

