%nprocs=4
%mem=4GB
#p pbepbe aug-cc-pvtz output=wfx scf=(conver=6) int=(grid=ultrafine)

title

0 1
C 0.179810349000000 -0.077197552000000 -0.118024640000000
Cl 1.722679479000000 0.399031247000000 0.628076100000000
H 0.130360699000000 -1.159076002000000 -0.155096513000000
H -0.630477191000000 0.314338739000000 0.485507040000000
H 0.134959164000000 0.335748179000000 -1.118887999000000
O 4.457781948000000 0.810669549000000 1.284657376000000
C 4.754736621000000 0.172127826000000 0.299597928000000
H 5.804472858000000 -0.011683152000000 0.022804665000000
H 3.990362156000000 -0.254859577000000 -0.365742508000000

13chloromethanefmdh085.wfx

