%nprocs=4
%mem=4GB
#p pbepbe aug-cc-pvtz output=wfx scf=(conver=6) int=(grid=ultrafine)

title

0 1
C 0.179810349000000 -0.077197552000000 -0.118024640000000
Cl 1.722679479000000 0.399031247000000 0.628076100000000
H 0.130360699000000 -1.159076002000000 -0.155096513000000
H -0.630477191000000 0.314338739000000 0.485507040000000
H 0.134959164000000 0.335748179000000 -1.118887999000000
O 4.652810673000000 0.840021756000000 1.331475443000000
C 4.949765346000000 0.201480033000000 0.346415995000000
H 5.999501583000000 0.017669055000000 0.069622732000000
H 4.185390881000000 -0.225507370000000 -0.318924441000000

13chloromethanefmdh090.wfx

