%nprocs=4
%mem=4GB
#p pbepbe aug-cc-pvtz output=wfx scf=(conver=6) int=(grid=ultrafine)

title

0 1
O 4.840001958000000 0.868194413000000 1.376412075000000
C 5.136956631000000 0.229652690000000 0.391352627000000
H 6.186692868000000 0.045841712000000 0.114559364000000
H 4.372582166000000 -0.197334713000000 -0.273987809000000

13chloromethanefmdh095_2.wfx

