%nprocs=4
%mem=4GB
#p pbepbe aug-cc-pvtz output=wfx scf=(conver=6) int=(grid=ultrafine)

title

0 1
C 0.179810349000000 -0.077197552000000 -0.118024640000000
Cl 1.722679479000000 0.399031247000000 0.628076100000000
H 0.130360699000000 -1.159076002000000 -0.155096513000000
H -0.630477191000000 0.314338739000000 0.485507040000000
H 0.134959164000000 0.335748179000000 -1.118887999000000
O 6.674014471000000 1.144216904000000 1.816680141000000
C 6.970969144000000 0.505675181000000 0.831620693000000
H 8.020705381000001 0.321864203000000 0.554827430000000
H 6.206594679000000 0.078687778000000 0.166280257000000

13chloromethanefmdh150.wfx

