%nprocs=4
%mem=4GB
#p pbepbe aug-cc-pvtz output=wfx scf=(conver=6) int=(grid=ultrafine)

title

0 1
C 0.179810349000000 -0.077197552000000 -0.118024640000000
Cl 1.722679479000000 0.399031247000000 0.628076100000000
H 0.130360699000000 -1.159076002000000 -0.155096513000000
H -0.630477191000000 0.314338739000000 0.485507040000000
H 0.134959164000000 0.335748179000000 -1.118887999000000
O 4.840001958000000 0.868194413000000 1.376412075000000
C 5.136956631000000 0.229652690000000 0.391352627000000
H 6.186692868000000 0.045841712000000 0.114559364000000
H 4.372582166000000 -0.197334713000000 -0.273987809000000

13chloromethanefmdh095.wfx

