%nprocs=4
%mem=4GB
#p pbepbe aug-cc-pvtz output=wfx scf=(conver=6) int=(grid=ultrafine)

title

0 1
O 5.872366780000000 1.023567349000000 1.624238772000000
C 6.169321453000000 0.385025626000000 0.639179324000000
H 7.219057690000000 0.201214648000000 0.362386061000000
H 5.404946988000000 -0.041961777000000 -0.026161112000000

13chloromethanefmdh125_2.wfx

