%nprocs=4
%mem=4GB
#p pbepbe aug-cc-pvtz output=wfx scf=(conver=6) int=(grid=ultrafine)

title

0 1
O 4.252018674000000 0.779701772000000 1.235262403000000
C 4.548973347000000 0.141160049000000 0.250202955000000
H 5.598709584000000 -0.042650929000000 -0.026590308000000
H 3.784598882000000 -0.285827354000000 -0.415137481000000

13chloromethanefmdh080_2.wfx

