%nprocs=4
%mem=4GB
#p pbepbe aug-cc-pvtz output=wfx scf=(conver=6) int=(grid=ultrafine)

title

0 1
O 5.197775228000000 0.922039994000000 1.462298155000000
C 5.494729901000000 0.283498271000000 0.477238707000000
H 6.544466138000000 0.099687293000000 0.200445444000000
H 4.730355436000000 -0.143489132000000 -0.188101729000000

13chloromethanefmdh105_2.wfx

