%nprocs=4
%mem=4GB
#p pbepbe aug-cc-pvtz output=wfx scf=(conver=6) int=(grid=ultrafine)

title

0 1
O 4.457781948000000 0.810669549000000 1.284657376000000
C 4.754736621000000 0.172127826000000 0.299597928000000
H 5.804472858000000 -0.011683152000000 0.022804665000000
H 3.990362156000000 -0.254859577000000 -0.365742508000000

13chloromethanefmdh085_2.wfx

