%nprocs=4
%mem=4GB
#p pbepbe aug-cc-pvtz output=wfx scf=(conver=6) int=(grid=ultrafine)

title

0 1
O 4.652810673000000 0.840021756000000 1.331475443000000
C 4.949765346000000 0.201480033000000 0.346415995000000
H 5.999501583000000 0.017669055000000 0.069622732000000
H 4.185390881000000 -0.225507370000000 -0.318924441000000

13chloromethanefmdh090_2.wfx

