%nprocs=4
%mem=4GB
#p pbepbe aug-cc-pvtz output=wfx scf=(conver=6) int=(grid=ultrafine)

title

0 1
O 4.552596434000000 0.803342726000000 1.277904451000000
C 5.021998019000000 0.197426108000000 0.340072851000000
H 6.109118567000000 0.101951113000000 0.197619352000000
H 4.383654871000000 -0.286309145000000 -0.413962377000000

14bromomethanefmdh090_2.wfx

