%nprocs=4
%mem=4GB
#p pbepbe aug-cc-pvtz output=wfx scf=(conver=6) int=(grid=ultrafine)

title

0 1
C 0.081577546000000 -0.079576968000000 -0.122248507000000
Br 1.796548323000000 0.397128500000000 0.629679005000000
H 0.013255521000000 -1.160016154000000 -0.156779811000000
H -0.692267287000000 0.331402893000000 0.514488442000000
H 0.018180933000000 0.339827727000000 -1.118895585000000
O 4.399572587000000 0.780788525000000 1.241913079000000
C 4.868974172000000 0.174871907000000 0.304081479000000
H 5.956094720000000 0.079396912000000 0.161627980000000
H 4.230631024000000 -0.308863346000000 -0.449953749000000

14bromomethanefmdh085.wfx

