%nprocs=4
%mem=4GB
#p pbepbe aug-cc-pvtz output=wfx scf=(conver=6) int=(grid=ultrafine)

title

0 1
O 6.687246694000000 1.117969056000000 1.779976461000000
C 7.156648279000000 0.512052438000000 0.842144861000000
H 8.243768827000000 0.416577443000000 0.699691362000000
H 6.518305131000000 0.028317185000000 0.088109633000000

14bromomethanefmdh150_2.wfx

