%nprocs=4
%mem=4GB
#p pbepbe aug-cc-pvtz output=wfx scf=(conver=6) int=(grid=ultrafine)

title

0 1
O 4.737534620000000 0.830600785000000 1.321402109000000
C 5.206936205000000 0.224684167000000 0.383570509000000
H 6.294056753000000 0.129209172000000 0.241117010000000
H 4.568593057000000 -0.259051086000000 -0.370464719000000

14bromomethanefmdh095_2.wfx

