%nprocs=4
%mem=4GB
#p pbepbe aug-cc-pvtz output=wfx scf=(conver=6) int=(grid=ultrafine)

title

0 1
C 0.081577546000000 -0.079576968000000 -0.122248507000000
Br 1.796548323000000 0.397128500000000 0.629679005000000
H 0.013255521000000 -1.160016154000000 -0.156779811000000
H -0.692267287000000 0.331402893000000 0.514488442000000
H 0.018180933000000 0.339827727000000 -1.118895585000000
O 5.303276826000000 0.913985589000000 1.454465277000000
C 5.772678411000000 0.308068971000000 0.516633677000000
H 6.859798959000000 0.212593976000000 0.374180178000000
H 5.134335263000000 -0.175666282000000 -0.237401551000000

14bromomethanefmdh110.wfx

