%nprocs=4
%mem=4GB
#p pbepbe aug-cc-pvtz output=wfx scf=(conver=6) int=(grid=ultrafine)

title

0 1
C 0.081577546000000 -0.079576968000000 -0.122248507000000
Br 1.796548323000000 0.397128500000000 0.629679005000000
H 0.013255521000000 -1.160016154000000 -0.156779811000000
H -0.692267287000000 0.331402893000000 0.514488442000000
H 0.018180933000000 0.339827727000000 -1.118895585000000
O 4.552596434000000 0.803342726000000 1.277904451000000
C 5.021998019000000 0.197426108000000 0.340072851000000
H 6.109118567000000 0.101951113000000 0.197619352000000
H 4.383654871000000 -0.286309145000000 -0.413962377000000

14bromomethanefmdh090.wfx

