%nprocs=4
%mem=4GB
#p pbepbe aug-cc-pvtz output=wfx scf=(conver=6) int=(grid=ultrafine)

title

0 1
O 5.836753189000000 0.992614727000000 1.579939485000000
C 6.306154774000000 0.386698109000000 0.642107885000000
H 7.393275322000000 0.291223114000000 0.499654386000000
H 5.667811626000000 -0.097037144000000 -0.111927343000000

14bromomethanefmdh125_2.wfx

