%nprocs=4
%mem=4GB
#p pbepbe aug-cc-pvtz output=wfx scf=(conver=6) int=(grid=ultrafine)

title

0 1
O 5.303276826000000 0.913985589000000 1.454465277000000
C 5.772678411000000 0.308068971000000 0.516633677000000
H 6.859798959000000 0.212593976000000 0.374180178000000
H 5.134335263000000 -0.175666282000000 -0.237401551000000

14bromomethanefmdh110_2.wfx

