%nprocs=4
%mem=4GB
#p pbepbe aug-cc-pvtz output=wfx scf=(conver=6) int=(grid=ultrafine)

title

0 1
O 4.246379573000000 0.758209390000000 1.205881919000000
C 4.715781158000000 0.152292772000000 0.268050319000000
H 5.802901706000000 0.056817777000000 0.125596820000000
H 4.077438010000000 -0.331442481000000 -0.485984909000000

14bromomethanefmdh080_2.wfx

