%nprocs=4
%mem=4GB
#p pbepbe aug-cc-pvtz output=wfx scf=(conver=6) int=(grid=ultrafine)

title

0 1
C 0.081577546000000 -0.079576968000000 -0.122248507000000
Br 1.796548323000000 0.397128500000000 0.629679005000000
H 0.013255521000000 -1.160016154000000 -0.156779811000000
H -0.692267287000000 0.331402893000000 0.514488442000000
H 0.018180933000000 0.339827727000000 -1.118895585000000
O 8.318204186999999 1.358356055000000 2.163579397000000
C 8.787605771999999 0.752439437000000 1.225747797000000
H 9.874726320000001 0.656964442000000 1.083294298000000
H 8.149262624000000 0.268704184000000 0.471712569000000

14bromomethanefmdh200.wfx

