%nprocs=4
%mem=4GB
#p pbepbe aug-cc-pvtz output=wfx scf=(conver=6) int=(grid=ultrafine)

title

0 1
C 0.081577546000000 -0.079576968000000 -0.122248507000000
Br 1.796548323000000 0.397128500000000 0.629679005000000
H 0.013255521000000 -1.160016154000000 -0.156779811000000
H -0.692267287000000 0.331402893000000 0.514488442000000
H 0.018180933000000 0.339827727000000 -1.118895585000000
O 5.119278674000000 0.886866082000000 1.411188716000000
C 5.588680259000000 0.280949464000000 0.473357116000000
H 6.675800807000000 0.185474469000000 0.330903617000000
H 4.950337111000000 -0.202785789000000 -0.280678112000000

14bromomethanefmdh105.wfx

