%nprocs=4
%mem=4GB
#p pbepbe aug-cc-pvtz output=wfx scf=(conver=6) int=(grid=ultrafine)

title

0 1
C -0.095501280000000 -0.091133031000000 -0.141315705000000
I 1.830395880000000 0.396977839000000 0.615165203000000
H -0.179397714000000 -1.169911689000000 -0.184336422000000
H -0.836289841000000 0.323841164000000 0.530854584000000
H -0.191259588000000 0.340771952000000 -1.129757270000000
O 5.156712974000000 0.873457702000000 1.366701391000000
C 5.732594452000000 0.282934234000000 0.479083252000000
H 6.830707886000000 0.243095803000000 0.428454593000000
H 5.184078844000000 -0.240982304000000 -0.317779398000000

15iodomethanefmdh105.wfx

