%nprocs=4
%mem=4GB
#p pbepbe aug-cc-pvtz output=wfx scf=(conver=6) int=(grid=ultrafine)

title

0 1
O 4.998224919000000 0.850755006000000 1.330893167000000
C 5.574106397000000 0.260231538000000 0.443275028000000
H 6.672219831000000 0.220393107000000 0.392646369000000
H 5.025590789000000 -0.263685000000000 -0.353587622000000

15iodomethanefmdh100_2.wfx

