%nprocs=4
%mem=4GB
#p pbepbe aug-cc-pvtz output=wfx scf=(conver=6) int=(grid=ultrafine)

title

0 1
O 6.668047137000000 1.089949478000000 1.708166827000000
C 7.243928615000000 0.499426010000000 0.820548688000000
H 8.342042049000000 0.459587579000000 0.769920029000000
H 6.695413007000000 -0.024490528000000 0.023686038000000

15iodomethanefmdh150_2.wfx

