%nprocs=4
%mem=4GB
#p pbepbe aug-cc-pvtz output=wfx scf=(conver=6) int=(grid=ultrafine)

title

0 1
O 4.839930070000000 0.828079986000000 1.295128595000000
C 5.415811548000000 0.237556518000000 0.407510456000000
H 6.513924982000000 0.197718087000000 0.356881797000000
H 4.867295940000000 -0.286360020000000 -0.389352194000000

15iodomethanefmdh095_2.wfx

