%nprocs=4
%mem=4GB
#p pbepbe aug-cc-pvtz output=wfx scf=(conver=6) int=(grid=ultrafine)

title

0 1
O 8.355744647000000 1.331704505000000 2.089479167000000
C 8.931626124999999 0.741181037000000 1.201861028000000
H 10.029739558999999 0.701342606000000 1.151232369000000
H 8.383110517000000 0.217264499000000 0.404998378000000

15iodomethanefmdh200_2.wfx

