%nprocs=4
%mem=4GB
#p pbepbe aug-cc-pvtz output=wfx scf=(conver=6) int=(grid=ultrafine)

title

0 1
O 4.523147166000000 0.782702269000000 1.223555799000000
C 5.099028644000000 0.192178801000000 0.335937660000000
H 6.197142078000000 0.152340370000000 0.285309001000000
H 4.550513036000000 -0.331737737000000 -0.460924990000000

15iodomethanefmdh085_2.wfx

