%nprocs=4
%mem=4GB
#p pbepbe aug-cc-pvtz output=wfx scf=(conver=6) int=(grid=ultrafine)

title

0 1
O 4.364755714000000 0.760013411000000 1.187769400000000
C 4.940637192000000 0.169489943000000 0.300151261000000
H 6.038750626000000 0.129651512000000 0.249522602000000
H 4.392121584000000 -0.354426595000000 -0.496711389000000

15iodomethanefmdh080_2.wfx

