%nprocs=4
%mem=4GB
#p pbepbe aug-cc-pvtz output=wfx scf=(conver=6) int=(grid=ultrafine)

title

0 1
O 5.315104426000000 0.896146561000000 1.402487790000000
C 5.890985904000000 0.305623093000000 0.514869651000000
H 6.989099338000000 0.265784662000000 0.464240992000000
H 5.342470296000000 -0.218293445000000 -0.281992999000000

15iodomethanefmdh110_2.wfx

