%nprocs=4
%mem=4GB
#p pbepbe aug-cc-pvtz output=wfx scf=(conver=6) int=(grid=ultrafine)

title

0 1
O 4.681538618000000 0.805391127000000 1.259342197000000
C 5.257420096000000 0.214867659000000 0.371724058000000
H 6.355533530000000 0.175029228000000 0.321095399000000
H 4.708904488000000 -0.309048879000000 -0.425138592000000

15iodomethanefmdh090_2.wfx

