%nprocs=4
%mem=4GB
#p pbepbe aug-cc-pvtz output=wfx scf=(conver=6) int=(grid=ultrafine)

title

0 1
C -0.095501280000000 -0.091133031000000 -0.141315705000000
I 1.830395880000000 0.396977839000000 0.615165203000000
H -0.179397714000000 -1.169911689000000 -0.184336422000000
H -0.836289841000000 0.323841164000000 0.530854584000000
H -0.191259588000000 0.340771952000000 -1.129757270000000
O 8.355744647000000 1.331704505000000 2.089479167000000
C 8.931626124999999 0.741181037000000 1.201861028000000
H 10.029739558999999 0.701342606000000 1.151232369000000
H 8.383110517000000 0.217264499000000 0.404998378000000

15iodomethanefmdh200.wfx

