%nprocs=4
%mem=4GB
#p pbepbe aug-cc-pvtz output=wfx scf=(conver=6) int=(grid=ultrafine)

title

0 1
C -0.095501280000000 -0.091133031000000 -0.141315705000000
I 1.830395880000000 0.396977839000000 0.615165203000000
H -0.179397714000000 -1.169911689000000 -0.184336422000000
H -0.836289841000000 0.323841164000000 0.530854584000000
H -0.191259588000000 0.340771952000000 -1.129757270000000
O 6.668047137000000 1.089949478000000 1.708166827000000
C 7.243928615000000 0.499426010000000 0.820548688000000
H 8.342042049000000 0.459587579000000 0.769920029000000
H 6.695413007000000 -0.024490528000000 0.023686038000000

15iodomethanefmdh150.wfx

