%nprocs=4
%mem=4GB
#p pbepbe aug-cc-pvtz output=wfx scf=(conver=6) int=(grid=ultrafine)

title

0 1
C 0.228087368000000 -0.006027308000000 -0.103512024000000
Cl 1.808884452000000 0.632806687000000 0.291464994000000
F 0.331959317000000 -1.250132504000000 -0.555496397000000
F -0.551167778000000 -0.013339450000000 0.969446208000000
F -0.350921815000000 0.733335757000000 -1.039651530000000
O 6.336888349000000 1.513106225000000 1.073133155000000
C 6.884718632000000 0.482521540000000 0.748848530000000
H 7.975670765000000 0.360349545000000 0.814135544000000
H 6.317355332000000 -0.382253616000000 0.372905072000000

16F3chloromethanefmdh150.wfx

