%nprocs=4
%mem=4GB
#p pbepbe aug-cc-pvtz output=wfx scf=(conver=6) int=(grid=ultrafine)

title

0 1
C 0.228087368000000 -0.006027308000000 -0.103512024000000
Cl 1.808884452000000 0.632806687000000 0.291464994000000
F 0.331959317000000 -1.250132504000000 -0.555496397000000
F -0.551167778000000 -0.013339450000000 0.969446208000000
F -0.350921815000000 0.733335757000000 -1.039651530000000
O 4.791042041000000 1.212574728000000 0.806274100000000
C 5.338872324000000 0.181990043000000 0.481989475000000
H 6.429824457000000 0.059818048000000 0.547276489000000
H 4.771509024000000 -0.682785113000000 0.106046017000000

16F3chloromethanefmdh100.wfx

