%nprocs=4
%mem=4GB
#p pbepbe aug-cc-pvtz output=wfx scf=(conver=6) int=(grid=ultrafine)

title

0 1
C 0.228087368000000 -0.006027308000000 -0.103512024000000
Cl 1.808884452000000 0.632806687000000 0.291464994000000
F 0.331959317000000 -1.250132504000000 -0.555496397000000
F -0.551167778000000 -0.013339450000000 0.969446208000000
F -0.350921815000000 0.733335757000000 -1.039651530000000
O 4.940246703000000 1.241581946000000 0.832031263000000
C 5.488076986000000 0.210997261000000 0.507746638000000
H 6.579029119000000 0.088825266000000 0.573033652000000
H 4.920713686000000 -0.653777895000000 0.131803180000000

16F3chloromethanefmdh105.wfx

