%nprocs=4
%mem=4GB
#p pbepbe aug-cc-pvtz output=wfx scf=(conver=6) int=(grid=ultrafine)

title

0 1
C 0.228087368000000 -0.006027308000000 -0.103512024000000
Cl 1.808884452000000 0.632806687000000 0.291464994000000
F 0.331959317000000 -1.250132504000000 -0.555496397000000
F -0.551167778000000 -0.013339450000000 0.969446208000000
F -0.350921815000000 0.733335757000000 -1.039651530000000
O 4.343815185000000 1.125628338000000 0.729069442000000
C 4.891645468000000 0.095043653000000 0.404784817000000
H 5.982597601000000 -0.027128342000000 0.470071831000000
H 4.324282168000000 -0.769731503000000 0.028841359000000

16F3chloromethanefmdh085.wfx

