%nprocs=4
%mem=4GB
#p pbepbe aug-cc-pvtz output=wfx scf=(conver=6) int=(grid=ultrafine)

title

0 1
C 0.228087368000000 -0.006027308000000 -0.103512024000000
Cl 1.808884452000000 0.632806687000000 0.291464994000000
F 0.331959317000000 -1.250132504000000 -0.555496397000000
F -0.551167778000000 -0.013339450000000 0.969446208000000
F -0.350921815000000 0.733335757000000 -1.039651530000000
O 5.089354582000000 1.270570348000000 0.857771718000000
C 5.637184865000000 0.239985663000000 0.533487093000000
H 6.728136998000000 0.117813668000000 0.598774107000000
H 5.069821565000000 -0.624789493000000 0.157543635000000

16F3chloromethanefmdh110.wfx

