%nprocs=4
%mem=4GB
#p pbepbe aug-cc-pvtz output=wfx scf=(conver=6) int=(grid=ultrafine)

title

0 1
O 6.336888349000000 1.513106225000000 1.073133155000000
C 6.884718632000000 0.482521540000000 0.748848530000000
H 7.975670765000000 0.360349545000000 0.814135544000000
H 6.317355332000000 -0.382253616000000 0.372905072000000

16F3chloromethanefmdh150_2.wfx

