%nprocs=4
%mem=4GB
#p pbepbe aug-cc-pvtz output=wfx scf=(conver=6) int=(grid=ultrafine)

title

0 1
O 4.194707306000000 1.096639935000000 0.703328986000000
C 4.742537589000000 0.066055250000000 0.379044361000000
H 5.833489722000000 -0.056116745000000 0.444331375000000
H 4.175174289000000 -0.798719906000000 0.003100903000000

16F3chloromethanefmdh080_2.wfx

