%nprocs=4
%mem=4GB
#p pbepbe aug-cc-pvtz output=wfx scf=(conver=6) int=(grid=ultrafine)

title

0 1
O 5.089354582000000 1.270570348000000 0.857771718000000
C 5.637184865000000 0.239985663000000 0.533487093000000
H 6.728136998000000 0.117813668000000 0.598774107000000
H 5.069821565000000 -0.624789493000000 0.157543635000000

16F3chloromethanefmdh110_2.wfx

