%nprocs=4
%mem=4GB
#p pbepbe aug-cc-pvtz output=wfx scf=(conver=6) int=(grid=ultrafine)

title

0 1
O 4.940246703000000 1.241581946000000 0.832031263000000
C 5.488076986000000 0.210997261000000 0.507746638000000
H 6.579029119000000 0.088825266000000 0.573033652000000
H 4.920713686000000 -0.653777895000000 0.131803180000000

16F3chloromethanefmdh105_2.wfx

