%nprocs=4
%mem=4GB
#p pbepbe aug-cc-pvtz output=wfx scf=(conver=6) int=(grid=ultrafine)

title

0 1
C 0.092348417000000 -0.047899443000000 -0.084180609000000
Br 1.850295174000000 0.401756602000000 0.541215366000000
F -0.041248424000000 -1.365231569000000 -0.186834437000000
F -0.830122197000000 0.403465307000000 0.756154716000000
F -0.127685037000000 0.489606579000000 -1.278313038000000
O 4.635395572000000 0.835688408000000 1.178012661000000
C 5.324975925000000 0.216867718000000 0.396677515000000
H 6.422559858000000 0.234753738000000 0.454588333000000
H 4.885638984000000 -0.392057291000000 -0.407452981000000

17F3bromomethanefmdh095.wfx

