%nprocs=4
%mem=4GB
#p pbepbe aug-cc-pvtz output=wfx scf=(conver=6) int=(grid=ultrafine)

title

0 1
O 4.195658095000000 0.767175231000000 1.077469199000000
C 4.885238448000000 0.148354541000000 0.296134053000000
H 5.982822381000000 0.166240561000000 0.354044871000000
H 4.445901507000000 -0.460570468000000 -0.507996443000000

17F3bromomethanefmdh080_2.wfx

