%nprocs=4
%mem=4GB
#p pbepbe aug-cc-pvtz output=wfx scf=(conver=6) int=(grid=ultrafine)

title

0 1
O 5.075133049000000 0.904201586000000 1.278556123000000
C 5.764713402000000 0.285380896000000 0.497220977000000
H 6.862297335000000 0.303266916000000 0.555131795000000
H 5.325376461000000 -0.323544113000000 -0.306909519000000

17F3bromomethanefmdh110_2.wfx

