%nprocs=4
%mem=4GB
#p pbepbe aug-cc-pvtz output=wfx scf=(conver=6) int=(grid=ultrafine)

title

0 1
C 0.092348417000000 -0.047899443000000 -0.084180609000000
Br 1.850295174000000 0.401756602000000 0.541215366000000
F -0.041248424000000 -1.365231569000000 -0.186834437000000
F -0.830122197000000 0.403465307000000 0.756154716000000
F -0.127685037000000 0.489606579000000 -1.278313038000000
O 4.781878352000000 0.858511118000000 1.211505112000000
C 5.471458705000000 0.239690428000000 0.430169966000000
H 6.569042638000000 0.257576448000000 0.488080784000000
H 5.032121764000000 -0.369234581000000 -0.373960530000000

17F3bromomethanefmdh100.wfx

