%nprocs=4
%mem=4GB
#p pbepbe aug-cc-pvtz output=wfx scf=(conver=6) int=(grid=ultrafine)

title

0 1
O 4.781878352000000 0.858511118000000 1.211505112000000
C 5.471458705000000 0.239690428000000 0.430169966000000
H 6.569042638000000 0.257576448000000 0.488080784000000
H 5.032121764000000 -0.369234581000000 -0.373960530000000

17F3bromomethanefmdh100_2.wfx

