%nprocs=4
%mem=4GB
#p pbepbe aug-cc-pvtz output=wfx scf=(conver=6) int=(grid=ultrafine)

title

0 1
O 4.488816413000000 0.812850683000000 1.144498174000000
C 5.178396766000000 0.194029993000000 0.363163028000000
H 6.275980699000000 0.211916013000000 0.421073846000000
H 4.739059825000000 -0.414895016000000 -0.440967468000000

17F3bromomethanefmdh090_2.wfx

