%nprocs=4
%mem=4GB
#p pbepbe aug-cc-pvtz output=wfx scf=(conver=6) int=(grid=ultrafine)

title

0 1
C 0.092348417000000 -0.047899443000000 -0.084180609000000
Br 1.850295174000000 0.401756602000000 0.541215366000000
F -0.041248424000000 -1.365231569000000 -0.186834437000000
F -0.830122197000000 0.403465307000000 0.756154716000000
F -0.127685037000000 0.489606579000000 -1.278313038000000
O 6.247766320000000 1.086903392000000 1.546672021000000
C 6.937346673000000 0.468082702000000 0.765336875000000
H 8.034930606000000 0.485968722000000 0.823247693000000
H 6.498009732000000 -0.140842307000000 -0.038793621000000

17F3bromomethanefmdh150.wfx

