%nprocs=4
%mem=4GB
#p pbepbe aug-cc-pvtz output=wfx scf=(conver=6) int=(grid=ultrafine)

title

0 1
C 0.092348417000000 -0.047899443000000 -0.084180609000000
Br 1.850295174000000 0.401756602000000 0.541215366000000
F -0.041248424000000 -1.365231569000000 -0.186834437000000
F -0.830122197000000 0.403465307000000 0.756154716000000
F -0.127685037000000 0.489606579000000 -1.278313038000000
O 4.488816413000000 0.812850683000000 1.144498174000000
C 5.178396766000000 0.194029993000000 0.363163028000000
H 6.275980699000000 0.211916013000000 0.421073846000000
H 4.739059825000000 -0.414895016000000 -0.440967468000000

17F3bromomethanefmdh090.wfx

