%nprocs=4
%mem=4GB
#p pbepbe aug-cc-pvtz output=wfx scf=(conver=6) int=(grid=ultrafine)

title

0 1
O 7.713557909000000 1.315280650000000 1.881816894000000
C 8.403138262000001 0.696459960000000 1.100481748000000
H 9.500722195000000 0.714345980000000 1.158392566000000
H 7.963801321000000 0.087534951000000 0.296351252000000

17F3bromomethanefmdh200_2.wfx

