%nprocs=4
%mem=4GB
#p pbepbe aug-cc-pvtz output=wfx scf=(conver=6) int=(grid=ultrafine)

title

0 1
C 0.092348417000000 -0.047899443000000 -0.084180609000000
Br 1.850295174000000 0.401756602000000 0.541215366000000
F -0.041248424000000 -1.365231569000000 -0.186834437000000
F -0.830122197000000 0.403465307000000 0.756154716000000
F -0.127685037000000 0.489606579000000 -1.278313038000000
O 7.713557909000000 1.315280650000000 1.881816894000000
C 8.403138262000001 0.696459960000000 1.100481748000000
H 9.500722195000000 0.714345980000000 1.158392566000000
H 7.963801321000000 0.087534951000000 0.296351252000000

17F3bromomethanefmdh200.wfx

