%nprocs=4
%mem=4GB
#p pbepbe aug-cc-pvtz output=wfx scf=(conver=6) int=(grid=ultrafine)

title

0 1
O 4.342237254000000 0.790012957000000 1.110983687000000
C 5.031817607000000 0.171192267000000 0.329648541000000
H 6.129401540000000 0.189078287000000 0.387559359000000
H 4.592480666000000 -0.437732742000000 -0.474481955000000

17F3bromomethanefmdh085_2.wfx

