%nprocs=4
%mem=4GB
#p pbepbe aug-cc-pvtz output=wfx scf=(conver=6) int=(grid=ultrafine)

title

0 1
C 0.092348417000000 -0.047899443000000 -0.084180609000000
Br 1.850295174000000 0.401756602000000 0.541215366000000
F -0.041248424000000 -1.365231569000000 -0.186834437000000
F -0.830122197000000 0.403465307000000 0.756154716000000
F -0.127685037000000 0.489606579000000 -1.278313038000000
O 4.195658095000000 0.767175231000000 1.077469199000000
C 4.885238448000000 0.148354541000000 0.296134053000000
H 5.982822381000000 0.166240561000000 0.354044871000000
H 4.445901507000000 -0.460570468000000 -0.507996443000000

17F3bromomethanefmdh080.wfx

