%nprocs=4
%mem=4GB
#p pbepbe aug-cc-pvtz output=wfx scf=(conver=6) int=(grid=ultrafine)

title

0 1
C -0.082218020000000 -0.061558741000000 -0.106808480000000
I 1.901225752000000 0.399212623000000 0.532188762000000
F -0.250022308000000 -1.377895721000000 -0.214057562000000
F -0.977880861000000 0.400686285000000 0.761715653000000
F -0.335197352000000 0.485382328000000 -1.293788995000000
O 4.597577270000000 0.805161641000000 1.123074116000000
C 5.344863779000000 0.203260856000000 0.381592032000000
H 6.436407478000000 0.264488056000000 0.490305506000000
H 4.965384722000000 -0.430853556000000 -0.432905289000000

18F3iodomethanefmdh090.wfx

