%nprocs=4
%mem=4GB
#p pbepbe aug-cc-pvtz output=wfx scf=(conver=6) int=(grid=ultrafine)

title

0 1
C -0.082218020000000 -0.061558741000000 -0.106808480000000
I 1.901225752000000 0.399212623000000 0.532188762000000
F -0.250022308000000 -1.377895721000000 -0.214057562000000
F -0.977880861000000 0.400686285000000 0.761715653000000
F -0.335197352000000 0.485382328000000 -1.293788995000000
O 7.892972766000000 1.301299684000000 1.845235497000000
C 8.640259275000000 0.699398899000000 1.103753413000000
H 9.731802974000001 0.760626099000000 1.212466887000000
H 8.260780218000001 0.065284487000000 0.289256092000000

18F3iodomethanefmdh200.wfx

