%nprocs=4
%mem=4GB
#p pbepbe aug-cc-pvtz output=wfx scf=(conver=6) int=(grid=ultrafine)

title

0 1
C -0.082218020000000 -0.061558741000000 -0.106808480000000
I 1.901225752000000 0.399212623000000 0.532188762000000
F -0.250022308000000 -1.377895721000000 -0.214057562000000
F -0.977880861000000 0.400686285000000 0.761715653000000
F -0.335197352000000 0.485382328000000 -1.293788995000000
O 5.196745021000000 0.895369301000000 1.254377267000000
C 5.944031530000000 0.293468516000000 0.512895183000000
H 7.035575229000000 0.354695716000000 0.621608657000000
H 5.564552473000000 -0.340645896000000 -0.301602138000000

18F3iodomethanefmdh110.wfx

