%nprocs=4
%mem=4GB
#p pbepbe aug-cc-pvtz output=wfx scf=(conver=6) int=(grid=ultrafine)

title

0 1
O 4.597577270000000 0.805161641000000 1.123074116000000
C 5.344863779000000 0.203260856000000 0.381592032000000
H 6.436407478000000 0.264488056000000 0.490305506000000
H 4.965384722000000 -0.430853556000000 -0.432905289000000

18F3iodomethanefmdh090_2.wfx

