%nprocs=4
%mem=4GB
#p pbepbe aug-cc-pvtz output=wfx scf=(conver=6) int=(grid=ultrafine)

title

0 1
C -0.082218020000000 -0.061558741000000 -0.106808480000000
I 1.901225752000000 0.399212623000000 0.532188762000000
F -0.250022308000000 -1.377895721000000 -0.214057562000000
F -0.977880861000000 0.400686285000000 0.761715653000000
F -0.335197352000000 0.485382328000000 -1.293788995000000
O 5.646120833000000 0.963025046000000 1.352854629000000
C 6.393407342000000 0.361124261000000 0.611372545000000
H 7.484951041000000 0.422351461000000 0.720086019000000
H 6.013928285000000 -0.272990151000000 -0.203124776000000

18F3iodomethanefmdh125.wfx

