%nprocs=4
%mem=4GB
#p pbepbe aug-cc-pvtz output=wfx scf=(conver=6) int=(grid=ultrafine)

title

0 1
C -0.082218020000000 -0.061558741000000 -0.106808480000000
I 1.901225752000000 0.399212623000000 0.532188762000000
F -0.250022308000000 -1.377895721000000 -0.214057562000000
F -0.977880861000000 0.400686285000000 0.761715653000000
F -0.335197352000000 0.485382328000000 -1.293788995000000
O 5.046953083000000 0.872817386000000 1.221551479000000
C 5.794239592000000 0.270916601000000 0.480069395000000
H 6.885783291000000 0.332143801000000 0.588782869000000
H 5.414760535000000 -0.363197811000000 -0.334427926000000

18F3iodomethanefmdh105.wfx

