%nprocs=4
%mem=4GB
#p pbepbe aug-cc-pvtz output=wfx scf=(conver=6) int=(grid=ultrafine)

title

0 1
C -0.082218020000000 -0.061558741000000 -0.106808480000000
I 1.901225752000000 0.399212623000000 0.532188762000000
F -0.250022308000000 -1.377895721000000 -0.214057562000000
F -0.977880861000000 0.400686285000000 0.761715653000000
F -0.335197352000000 0.485382328000000 -1.293788995000000
O 4.297993395000000 0.760057811000000 1.057422541000000
C 5.045279904000000 0.158157026000000 0.315940457000000
H 6.136823603000000 0.219384226000000 0.424653931000000
H 4.665800847000000 -0.475957386000000 -0.498556864000000

18F3iodomethanefmdh080.wfx

