%nprocs=4
%mem=4GB
#p pbepbe aug-cc-pvtz output=wfx scf=(conver=6) int=(grid=ultrafine)

title

0 1
O 5.046953083000000 0.872817386000000 1.221551479000000
C 5.794239592000000 0.270916601000000 0.480069395000000
H 6.885783291000000 0.332143801000000 0.588782869000000
H 5.414760535000000 -0.363197811000000 -0.334427926000000

18F3iodomethanefmdh105_2.wfx

