%nprocs=4
%mem=4GB
#p pbepbe aug-cc-pvtz output=wfx scf=(conver=6) int=(grid=ultrafine)

title

0 1
O 7.892972766000000 1.301299684000000 1.845235497000000
C 8.640259275000000 0.699398899000000 1.103753413000000
H 9.731802974000001 0.760626099000000 1.212466887000000
H 8.260780218000001 0.065284487000000 0.289256092000000

18F3iodomethanefmdh200_2.wfx

