%nprocs=4
%mem=4GB
#p pbepbe aug-cc-pvtz output=wfx scf=(conver=6) int=(grid=ultrafine)

title

0 1
O 4.747369208000000 0.827713556000000 1.155899904000000
C 5.494655717000000 0.225812771000000 0.414417820000000
H 6.586199416000000 0.287039971000000 0.523131294000000
H 5.115176660000000 -0.408301641000000 -0.400079501000000

18F3iodomethanefmdh095_2.wfx

