%nprocs=4
%mem=4GB
#p pbepbe aug-cc-pvtz output=wfx scf=(conver=6) int=(grid=ultrafine)

title

0 1
C -0.082218020000000 -0.061558741000000 -0.106808480000000
I 1.901225752000000 0.399212623000000 0.532188762000000
F -0.250022308000000 -1.377895721000000 -0.214057562000000
F -0.977880861000000 0.400686285000000 0.761715653000000
F -0.335197352000000 0.485382328000000 -1.293788995000000
O 4.897064503000000 0.850250921000000 1.188704513000000
C 5.644351012000000 0.248350136000000 0.447222429000000
H 6.735894711000000 0.309577336000000 0.555935903000000
H 5.264871955000000 -0.385764276000000 -0.367274892000000

18F3iodomethanefmdh100.wfx

