%nprocs=4
%mem=4GB
#p pbepbe aug-cc-pvtz output=wfx scf=(conver=6) int=(grid=ultrafine)

title

0 1
O 5.646120833000000 0.963025046000000 1.352854629000000
C 6.393407342000000 0.361124261000000 0.611372545000000
H 7.484951041000000 0.422351461000000 0.720086019000000
H 6.013928285000000 -0.272990151000000 -0.203124776000000

18F3iodomethanefmdh125_2.wfx

