%nprocs=4
%mem=4GB
#p pbepbe aug-cc-pvtz output=wfx scf=(conver=6) int=(grid=ultrafine)

title

0 1
C -0.082218020000000 -0.061558741000000 -0.106808480000000
I 1.901225752000000 0.399212623000000 0.532188762000000
F -0.250022308000000 -1.377895721000000 -0.214057562000000
F -0.977880861000000 0.400686285000000 0.761715653000000
F -0.335197352000000 0.485382328000000 -1.293788995000000
O 6.395080521000000 1.075784620000000 1.516983567000000
C 7.142367030000000 0.473883835000000 0.775501483000000
H 8.233910729000000 0.535111035000000 0.884214957000000
H 6.762887973000000 -0.160230577000000 -0.038995838000000

18F3iodomethanefmdh150.wfx

