%nprocs=4
%mem=4GB
#p pbepbe aug-cc-pvtz output=wfx scf=(conver=6) int=(grid=ultrafine)

title

0 1
C -0.453743740000000 0.000182739000000 1.059200327000000
C 0.583994572000000 -0.000028402000000 1.988244810000000
C 1.911123808000000 -0.000142760000000 1.563951774000000
C 2.200015462000000 -0.000060948000000 0.200857138000000
C 1.171852556000000 0.000151689000000 -0.738466754000000
H -1.486276324000000 0.000268975000000 1.377240603000000
H 0.351319424000000 -0.000103142000000 3.044291019000000
H 2.712830438000000 -0.000290390000000 2.288837764000000
H 3.227238082000000 -0.000162856000000 -0.136887263000000
H 1.383274700000000 0.000214894000000 -1.797905634000000
C -0.149841459000000 0.000281008000000 -0.299799844000000
Cl -1.432288391000000 0.000559697000000 -1.466414983000000
O -3.549773350000000 0.000179355000000 -3.479084557000000
C -4.697190193000000 0.001970523000000 -3.071882454000000
C -5.856298005000000 -0.000525980000000 -4.046343969000000
C -4.985406559000000 0.006697563000000 -1.585730937000000
H -5.770963716000000 0.873329438000000 -4.689860932000000
H -5.772046027000000 -0.878672614000000 -4.684120264000000
H -6.826425373000000 0.001664135000000 -3.559499669000000
H -6.046270877000000 0.008081616000000 -1.355759588000000
H -4.515740649000000 -0.867089745000000 -1.137268059000000
H -4.514608258000000 0.882595496000000 -1.142623777000000

19benClacetone090.wfx

