%nprocs=4
%mem=4GB
#p pbepbe aug-cc-pvtz output=wfx scf=(conver=6) int=(grid=ultrafine)

title

0 1
C -0.453743740000000 0.000182739000000 1.059200327000000
C 0.583994572000000 -0.000028402000000 1.988244810000000
C 1.911123808000000 -0.000142760000000 1.563951774000000
C 2.200015462000000 -0.000060948000000 0.200857138000000
C 1.171852556000000 0.000151689000000 -0.738466754000000
H -1.486276324000000 0.000268975000000 1.377240603000000
H 0.351319424000000 -0.000103142000000 3.044291019000000
H 2.712830438000000 -0.000290390000000 2.288837764000000
H 3.227238082000000 -0.000162856000000 -0.136887263000000
H 1.383274700000000 0.000214894000000 -1.797905634000000
C -0.149841459000000 0.000281008000000 -0.299799844000000
Cl -1.432288391000000 0.000559697000000 -1.466414983000000
O -3.314430450000000 0.000221627000000 -3.255391116000000
C -4.461847293000000 0.002012795000000 -2.848189013000000
C -5.620955105000000 -0.000483708000000 -3.822650528000000
C -4.750063659000000 0.006739835000000 -1.362037496000000
H -5.535620816000000 0.873371710000000 -4.466167491000000
H -5.536703127000000 -0.878630342000000 -4.460426823000000
H -6.591082473000000 0.001706407000000 -3.335806228000000
H -5.810927977000000 0.008123888000000 -1.132066147000000
H -4.280397749000000 -0.867047473000000 -0.913574618000000
H -4.279265358000000 0.882637768000000 -0.918930336000000

19benClacetone080.wfx

