%nprocs=4
%mem=4GB
#p pbepbe aug-cc-pvtz output=wfx scf=(conver=6) int=(grid=ultrafine)

title

0 1
C -0.453743740000000 0.000182739000000 1.059200327000000
C 0.583994572000000 -0.000028402000000 1.988244810000000
C 1.911123808000000 -0.000142760000000 1.563951774000000
C 2.200015462000000 -0.000060948000000 0.200857138000000
C 1.171852556000000 0.000151689000000 -0.738466754000000
H -1.486276324000000 0.000268975000000 1.377240603000000
H 0.351319424000000 -0.000103142000000 3.044291019000000
H 2.712830438000000 -0.000290390000000 2.288837764000000
H 3.227238082000000 -0.000162856000000 -0.136887263000000
H 1.383274700000000 0.000214894000000 -1.797905634000000
C -0.149841459000000 0.000281008000000 -0.299799844000000
Cl -1.432288391000000 0.000559697000000 -1.466414983000000
O -5.114880037000000 -0.000101769000000 -4.966718551000000
C -6.262296880000000 0.001689399000000 -4.559516448000000
C -7.421404692000000 -0.000807104000000 -5.533977963000000
C -6.550513246000000 0.006416439000000 -3.073364931000000
H -7.336070403000000 0.873048314000000 -6.177494926000000
H -7.337152714000000 -0.878953738000000 -6.171754258000000
H -8.391532059999999 0.001383011000000 -5.047133663000000
H -7.611377564000000 0.007800492000000 -2.843393582000000
H -6.080847336000000 -0.867370869000000 -2.624902053000000
H -6.079714945000000 0.882314372000000 -2.630257771000000

19benClacetone150.wfx

