%nprocs=4
%mem=4GB
#p pbepbe aug-cc-pvtz output=wfx scf=(conver=6) int=(grid=ultrafine)

title

0 1
O -3.549773350000000 0.000179355000000 -3.479084557000000
C -4.697190193000000 0.001970523000000 -3.071882454000000
C -5.856298005000000 -0.000525980000000 -4.046343969000000
C -4.985406559000000 0.006697563000000 -1.585730937000000
H -5.770963716000000 0.873329438000000 -4.689860932000000
H -5.772046027000000 -0.878672614000000 -4.684120264000000
H -6.826425373000000 0.001664135000000 -3.559499669000000
H -6.046270877000000 0.008081616000000 -1.355759588000000
H -4.515740649000000 -0.867089745000000 -1.137268059000000
H -4.514608258000000 0.882595496000000 -1.142623777000000

19benClacetone090_2.wfx

