%nprocs=4
%mem=4GB
#p pbepbe aug-cc-pvtz output=wfx scf=(conver=6) int=(grid=ultrafine)

title

0 1
O -3.784875362000000 0.000137126000000 -3.702549032000000
C -4.932292205000000 0.001928294000000 -3.295346929000000
C -6.091400017000000 -0.000568209000000 -4.269808444000000
C -5.220508571000000 0.006655334000000 -1.809195412000000
H -6.006065728000000 0.873287209000000 -4.913325407000000
H -6.007148039000000 -0.878714843000000 -4.907584739000000
H -7.061527385000000 0.001621906000000 -3.782964144000000
H -6.281372889000000 0.008039387000000 -1.579224063000000
H -4.750842661000000 -0.867131974000000 -1.360732534000000
H -4.749710270000000 0.882553267000000 -1.366088252000000

19benClacetone100_2.wfx

