%nprocs=4
%mem=4GB
#p pbepbe aug-cc-pvtz output=wfx scf=(conver=6) int=(grid=ultrafine)

title

0 1
O -5.114880037000000 -0.000101769000000 -4.966718551000000
C -6.262296880000000 0.001689399000000 -4.559516448000000
C -7.421404692000000 -0.000807104000000 -5.533977963000000
C -6.550513246000000 0.006416439000000 -3.073364931000000
H -7.336070403000000 0.873048314000000 -6.177494926000000
H -7.337152714000000 -0.878953738000000 -6.171754258000000
H -8.391532059999999 0.001383011000000 -5.047133663000000
H -7.611377564000000 0.007800492000000 -2.843393582000000
H -6.080847336000000 -0.867370869000000 -2.624902053000000
H -6.079714945000000 0.882314372000000 -2.630257771000000

19benClacetone150_2.wfx

