%nprocs=4
%mem=4GB
#p pbepbe aug-cc-pvtz output=wfx scf=(conver=6) int=(grid=ultrafine)

title

0 1
O -3.902577192000000 0.000115984000000 -3.814424628000000
C -5.049994035000000 0.001907152000000 -3.407222525000000
C -6.209101847000000 -0.000589351000000 -4.381684040000000
C -5.338210401000000 0.006634192000000 -1.921071008000000
H -6.123767558000000 0.873266067000000 -5.025201003000000
H -6.124849869000000 -0.878735985000000 -5.019460335000000
H -7.179229215000000 0.001600764000000 -3.894839740000000
H -6.399074719000000 0.008018245000000 -1.691099659000000
H -4.868544491000000 -0.867153116000000 -1.472608130000000
H -4.867412100000000 0.882532125000000 -1.477963848000000

19benClacetone105_2.wfx

