%nprocs=4
%mem=4GB
#p pbepbe aug-cc-pvtz output=wfx scf=(conver=6) int=(grid=ultrafine)

title

0 1
C -0.453743740000000 0.000182739000000 1.059200327000000
C 0.583994572000000 -0.000028402000000 1.988244810000000
C 1.911123808000000 -0.000142760000000 1.563951774000000
C 2.200015462000000 -0.000060948000000 0.200857138000000
C 1.171852556000000 0.000151689000000 -0.738466754000000
H -1.486276324000000 0.000268975000000 1.377240603000000
H 0.351319424000000 -0.000103142000000 3.044291019000000
H 2.712830438000000 -0.000290390000000 2.288837764000000
H 3.227238082000000 -0.000162856000000 -0.136887263000000
H 1.383274700000000 0.000214894000000 -1.797905634000000
C -0.149841459000000 0.000281008000000 -0.299799844000000
Cl -1.432288391000000 0.000559697000000 -1.466414983000000
O -3.902577192000000 0.000115984000000 -3.814424628000000
C -5.049994035000000 0.001907152000000 -3.407222525000000
C -6.209101847000000 -0.000589351000000 -4.381684040000000
C -5.338210401000000 0.006634192000000 -1.921071008000000
H -6.123767558000000 0.873266067000000 -5.025201003000000
H -6.124849869000000 -0.878735985000000 -5.019460335000000
H -7.179229215000000 0.001600764000000 -3.894839740000000
H -6.399074719000000 0.008018245000000 -1.691099659000000
H -4.868544491000000 -0.867153116000000 -1.472608130000000
H -4.867412100000000 0.882532125000000 -1.477963848000000

19benClacetone105.wfx

