%nprocs=4
%mem=4GB
#p pbepbe aug-cc-pvtz output=wfx scf=(conver=6) int=(grid=ultrafine)

title

0 1
C 1.217119800000000 0.000086352000000 -0.737292531000000
C 2.232687859000000 0.000174717000000 0.216499979000000
C 1.925210087000000 0.000130109000000 1.575499453000000
C 0.592512132000000 0.000178132000000 1.981957864000000
C -0.433049194000000 0.000070250000000 1.038766795000000
H 1.448302007000000 -0.000020318000000 -1.792785360000000
H 3.264633432000000 0.000102432000000 -0.107052277000000
H 2.717093974000000 -0.000023151000000 2.311239059000000
H 0.345707498000000 0.000109507000000 3.034933333000000
H -1.468501456000000 -0.000093207000000 1.347574970000000
C -0.111081725000000 -0.000108736000000 -0.316810844000000
Br -1.493755973000000 -0.001747763000000 -1.606462802000000
O -3.602290383000000 0.000658436000000 -3.479300268000000
C -4.759757413000000 0.030264198000000 -3.100206907000000
C -5.085531296000000 0.030554635000000 -1.622541042000000
C -5.892066563000000 0.067361855000000 -4.103782824000000
H -5.766678483000000 0.943906678000000 -4.737012703000000
H -5.815256868000000 -0.807509839000000 -4.747006457000000
H -6.873553907000000 0.091919907000000 -3.641192637000000
H -6.151626429000000 0.058671743000000 -1.420736668000000
H -4.651545647000000 -0.859164839000000 -1.169293787000000
H -4.603384172000000 0.889673293000000 -1.159055694000000

20benBracetone090.wfx

