%nprocs=4
%mem=4GB
#p pbepbe aug-cc-pvtz output=wfx scf=(conver=6) int=(grid=ultrafine)

title

0 1
C 1.217119800000000 0.000086352000000 -0.737292531000000
C 2.232687859000000 0.000174717000000 0.216499979000000
C 1.925210087000000 0.000130109000000 1.575499453000000
C 0.592512132000000 0.000178132000000 1.981957864000000
C -0.433049194000000 0.000070250000000 1.038766795000000
H 1.448302007000000 -0.000020318000000 -1.792785360000000
H 3.264633432000000 0.000102432000000 -0.107052277000000
H 2.717093974000000 -0.000023151000000 2.311239059000000
H 0.345707498000000 0.000109507000000 3.034933333000000
H -1.468501456000000 -0.000093207000000 1.347574970000000
C -0.111081725000000 -0.000108736000000 -0.316810844000000
Br -1.493755973000000 -0.001747763000000 -1.606462802000000
O -3.719427030000000 0.000792109000000 -3.583343105000000
C -4.876894060000000 0.030397871000000 -3.204249744000000
C -5.202667943000000 0.030688308000000 -1.726583879000000
C -6.009203210000000 0.067495528000000 -4.207825661000000
H -5.883815130000000 0.944040351000000 -4.841055540000000
H -5.932393515000000 -0.807376166000000 -4.851049294000000
H -6.990690554000000 0.092053580000000 -3.745235474000000
H -6.268763076000000 0.058805416000000 -1.524779505000000
H -4.768682294000000 -0.859031166000000 -1.273336624000000
H -4.720520819000000 0.889806966000000 -1.263098531000000

20benBracetone095.wfx

