%nprocs=4
%mem=4GB
#p pbepbe aug-cc-pvtz output=wfx scf=(conver=6) int=(grid=ultrafine)

title

0 1
C 1.217119800000000 0.000086352000000 -0.737292531000000
C 2.232687859000000 0.000174717000000 0.216499979000000
C 1.925210087000000 0.000130109000000 1.575499453000000
C 0.592512132000000 0.000178132000000 1.981957864000000
C -0.433049194000000 0.000070250000000 1.038766795000000
H 1.448302007000000 -0.000020318000000 -1.792785360000000
H 3.264633432000000 0.000102432000000 -0.107052277000000
H 2.717093974000000 -0.000023151000000 2.311239059000000
H 0.345707498000000 0.000109507000000 3.034933333000000
H -1.468501456000000 -0.000093207000000 1.347574970000000
C -0.111081725000000 -0.000108736000000 -0.316810844000000
Br -1.493755973000000 -0.001747763000000 -1.606462802000000
O -3.953700324000000 0.001059455000000 -3.791428778000000
C -5.111167354000000 0.030665217000000 -3.412335417000000
C -5.436941237000000 0.030955654000000 -1.934669552000000
C -6.243476504000000 0.067762874000000 -4.415911334000000
H -6.118088424000000 0.944307697000000 -5.049141213000000
H -6.166666809000000 -0.807108820000000 -5.059134967000000
H -7.224963848000000 0.092320926000000 -3.953321147000000
H -6.503036370000000 0.059072762000000 -1.732865178000000
H -5.002955588000000 -0.858763820000000 -1.481422297000000
H -4.954794113000000 0.890074312000000 -1.471184204000000

20benBracetone105.wfx

