%nprocs=4
%mem=4GB
#p pbepbe aug-cc-pvtz output=wfx scf=(conver=6) int=(grid=ultrafine)

title

0 1
O -4.070836971000000 0.001193128000000 -3.895471614000000
C -5.228304001000000 0.030798890000000 -3.516378253000000
C -5.554077884000000 0.031089327000000 -2.038712388000000
C -6.360613151000000 0.067896547000000 -4.519954170000000
H -6.620173017000000 0.059206435000000 -1.836908014000000
H -5.120092235000000 -0.858630147000000 -1.585465133000000
H -5.071930760000000 0.890207985000000 -1.575227040000000
H -6.235225071000000 0.944441370000000 -5.153184049000000
H -6.283803456000000 -0.806975147000000 -5.163177803000000
H -7.342100495000000 0.092454599000000 -4.057363983000000

20benBracetone110_2.wfx

