%nprocs=4
%mem=4GB
#p pbepbe aug-cc-pvtz output=wfx scf=(conver=6) int=(grid=ultrafine)

title

0 1
O -3.953700324000000 0.001059455000000 -3.791428778000000
C -5.111167354000000 0.030665217000000 -3.412335417000000
C -5.436941237000000 0.030955654000000 -1.934669552000000
C -6.243476504000000 0.067762874000000 -4.415911334000000
H -6.503036370000000 0.059072762000000 -1.732865178000000
H -5.002955588000000 -0.858763820000000 -1.481422297000000
H -4.954794113000000 0.890074312000000 -1.471184204000000
H -6.118088424000000 0.944307697000000 -5.049141213000000
H -6.166666809000000 -0.807108820000000 -5.059134967000000
H -7.224963848000000 0.092320926000000 -3.953321147000000

20benBracetone105_2.wfx

