%nprocs=4
%mem=4GB
#p pbepbe aug-cc-pvtz output=wfx scf=(conver=6) int=(grid=ultrafine)

title

0 1
C 1.217119800000000 0.000086352000000 -0.737292531000000
C 2.232687859000000 0.000174717000000 0.216499979000000
C 1.925210087000000 0.000130109000000 1.575499453000000
C 0.592512132000000 0.000178132000000 1.981957864000000
C -0.433049194000000 0.000070250000000 1.038766795000000
H 1.448302007000000 -0.000020318000000 -1.792785360000000
H 3.264633432000000 0.000102432000000 -0.107052277000000
H 2.717093974000000 -0.000023151000000 2.311239059000000
H 0.345707498000000 0.000109507000000 3.034933333000000
H -1.468501456000000 -0.000093207000000 1.347574970000000
C -0.111081725000000 -0.000108736000000 -0.316810844000000
Br -1.493755973000000 -0.001747763000000 -1.606462802000000
O -3.368017089000000 0.000391090000000 -3.271214595000000
C -4.525484119000000 0.029996852000000 -2.892121234000000
C -4.851258002000000 0.030287289000000 -1.414455369000000
C -5.657793269000000 0.067094509000000 -3.895697151000000
H -5.532405189000000 0.943639332000000 -4.528927030000000
H -5.580983574000000 -0.807777185000000 -4.538920784000000
H -6.639280613000000 0.091652561000000 -3.433106964000000
H -5.917353135000000 0.058404397000000 -1.212650995000000
H -4.417272353000000 -0.859432185000000 -0.961208114000000
H -4.369110878000000 0.889405947000000 -0.950970021000000

20benBracetone080.wfx

