%nprocs=4
%mem=4GB
#p pbepbe aug-cc-pvtz output=wfx scf=(conver=6) int=(grid=ultrafine)

title

0 1
O -6.362651070000000 0.003808481000000 -5.931101334000000
C -7.520118100000000 0.033414243000000 -5.552007973000000
C -7.845891983000000 0.033704680000000 -4.074342108000000
C -8.652427250000001 0.070511900000000 -6.555583890000000
H -8.911987116000001 0.061821788000000 -3.872537734000000
H -7.411906334000000 -0.856014794000000 -3.621094853000000
H -7.363744859000000 0.892823338000000 -3.610856760000000
H -8.527039170000000 0.947056723000000 -7.188813769000000
H -8.575617554999999 -0.804359794000000 -7.198807523000000
H -9.633914594000000 0.095069952000000 -6.092993703000000

20benBracetone200_2.wfx

