%nprocs=4
%mem=4GB
#p pbepbe aug-cc-pvtz output=wfx scf=(conver=6) int=(grid=ultrafine)

title

0 1
O -5.033186042000000 0.002291334000000 -4.750247040000000
C -6.190653072000000 0.031897096000000 -4.371153679000000
C -6.516426955000000 0.032187533000000 -2.893487814000000
C -7.322962222000000 0.068994753000000 -5.374729596000000
H -7.582522088000000 0.060304641000000 -2.691683440000000
H -6.082441306000000 -0.857531941000000 -2.440240559000000
H -6.034279831000000 0.891306191000000 -2.430002466000000
H -7.197574142000000 0.945539576000000 -6.007959475000000
H -7.246152527000000 -0.805876941000000 -6.017953229000000
H -8.304449566000001 0.093552805000000 -4.912139409000000

20benBracetone150_2.wfx

