%nprocs=4
%mem=4GB
#p pbepbe aug-cc-pvtz output=wfx scf=(conver=6) int=(grid=ultrafine)

title

0 1
C 1.217119800000000 0.000086352000000 -0.737292531000000
C 2.232687859000000 0.000174717000000 0.216499979000000
C 1.925210087000000 0.000130109000000 1.575499453000000
C 0.592512132000000 0.000178132000000 1.981957864000000
C -0.433049194000000 0.000070250000000 1.038766795000000
H 1.448302007000000 -0.000020318000000 -1.792785360000000
H 3.264633432000000 0.000102432000000 -0.107052277000000
H 2.717093974000000 -0.000023151000000 2.311239059000000
H 0.345707498000000 0.000109507000000 3.034933333000000
H -1.468501456000000 -0.000093207000000 1.347574970000000
C -0.111081725000000 -0.000108736000000 -0.316810844000000
Br -1.493755973000000 -0.001747763000000 -1.606462802000000
O -6.362651070000000 0.003808481000000 -5.931101334000000
C -7.520118100000000 0.033414243000000 -5.552007973000000
C -7.845891983000000 0.033704680000000 -4.074342108000000
C -8.652427250000001 0.070511900000000 -6.555583890000000
H -8.527039170000000 0.947056723000000 -7.188813769000000
H -8.575617554999999 -0.804359794000000 -7.198807523000000
H -9.633914594000000 0.095069952000000 -6.092993703000000
H -8.911987116000001 0.061821788000000 -3.872537734000000
H -7.411906334000000 -0.856014794000000 -3.621094853000000
H -7.363744859000000 0.892823338000000 -3.610856760000000

20benBracetone200.wfx

