%nprocs=4
%mem=4GB
#p pbepbe aug-cc-pvtz output=wfx scf=(conver=6) int=(grid=ultrafine)

title

0 1
C 1.217119800000000 0.000086352000000 -0.737292531000000
C 2.232687859000000 0.000174717000000 0.216499979000000
C 1.925210087000000 0.000130109000000 1.575499453000000
C 0.592512132000000 0.000178132000000 1.981957864000000
C -0.433049194000000 0.000070250000000 1.038766795000000
H 1.448302007000000 -0.000020318000000 -1.792785360000000
H 3.264633432000000 0.000102432000000 -0.107052277000000
H 2.717093974000000 -0.000023151000000 2.311239059000000
H 0.345707498000000 0.000109507000000 3.034933333000000
H -1.468501456000000 -0.000093207000000 1.347574970000000
C -0.111081725000000 -0.000108736000000 -0.316810844000000
Br -1.493755973000000 -0.001747763000000 -1.606462802000000
O -5.033186042000000 0.002291334000000 -4.750247040000000
C -6.190653072000000 0.031897096000000 -4.371153679000000
C -6.516426955000000 0.032187533000000 -2.893487814000000
C -7.322962222000000 0.068994753000000 -5.374729596000000
H -7.197574142000000 0.945539576000000 -6.007959475000000
H -7.246152527000000 -0.805876941000000 -6.017953229000000
H -8.304449566000001 0.093552805000000 -4.912139409000000
H -7.582522088000000 0.060304641000000 -2.691683440000000
H -6.082441306000000 -0.857531941000000 -2.440240559000000
H -6.034279831000000 0.891306191000000 -2.430002466000000

20benBracetone150.wfx

