%nprocs=4
%mem=4GB
#p pbepbe aug-cc-pvtz output=wfx scf=(conver=6) int=(grid=ultrafine)

title

0 1
O -3.836488911000000 0.000925697000000 -3.687319533000000
C -4.993955941000000 0.030531459000000 -3.308226172000000
C -5.319729824000000 0.030821896000000 -1.830560307000000
C -6.126265091000000 0.067629116000000 -4.311802089000000
H -6.385824957000000 0.058939004000000 -1.628755933000000
H -4.885744175000000 -0.858897578000000 -1.377313052000000
H -4.837582700000000 0.889940554000000 -1.367074959000000
H -6.000877011000000 0.944173939000000 -4.945031968000000
H -6.049455396000000 -0.807242578000000 -4.955025722000000
H -7.107752435000000 0.092187168000000 -3.849211902000000

20benBracetone100_2.wfx

