%nprocs=4
%mem=4GB
#p pbepbe aug-cc-pvtz output=wfx scf=(conver=6) int=(grid=ultrafine)

title

0 1
C 1.217119800000000 0.000086352000000 -0.737292531000000
C 2.232687859000000 0.000174717000000 0.216499979000000
C 1.925210087000000 0.000130109000000 1.575499453000000
C 0.592512132000000 0.000178132000000 1.981957864000000
C -0.433049194000000 0.000070250000000 1.038766795000000
H 1.448302007000000 -0.000020318000000 -1.792785360000000
H 3.264633432000000 0.000102432000000 -0.107052277000000
H 2.717093974000000 -0.000023151000000 2.311239059000000
H 0.345707498000000 0.000109507000000 3.034933333000000
H -1.468501456000000 -0.000093207000000 1.347574970000000
C -0.111081725000000 -0.000108736000000 -0.316810844000000
Br -1.493755973000000 -0.001747763000000 -1.606462802000000
O -4.422246911000000 0.001594147000000 -4.207600124000000
C -5.579713941000000 0.031199909000000 -3.828506763000000
C -5.905487824000000 0.031490346000000 -2.350840898000000
C -6.712023091000000 0.068297566000000 -4.832082680000000
H -6.586635011000000 0.944842389000000 -5.465312559000000
H -6.635213396000000 -0.806574128000000 -5.475306313000000
H -7.693510435000000 0.092855618000000 -4.369492493000000
H -6.971582957000000 0.059607454000000 -2.149036524000000
H -5.471502175000000 -0.858229128000000 -1.897593643000000
H -5.423340700000000 0.890609004000000 -1.887355550000000

20benBracetone125.wfx

