%nprocs=4
%mem=4GB
#p pbepbe aug-cc-pvtz output=wfx scf=(conver=6) int=(grid=ultrafine)

title

0 1
O -3.368017089000000 0.000391090000000 -3.271214595000000
C -4.525484119000000 0.029996852000000 -2.892121234000000
C -4.851258002000000 0.030287289000000 -1.414455369000000
C -5.657793269000000 0.067094509000000 -3.895697151000000
H -5.917353135000000 0.058404397000000 -1.212650995000000
H -4.417272353000000 -0.859432185000000 -0.961208114000000
H -4.369110878000000 0.889405947000000 -0.950970021000000
H -5.532405189000000 0.943639332000000 -4.528927030000000
H -5.580983574000000 -0.807777185000000 -4.538920784000000
H -6.639280613000000 0.091652561000000 -3.433106964000000

20benBracetone080_2.wfx

