%nprocs=4
%mem=4GB
#p pbepbe aug-cc-pvtz output=wfx scf=(conver=6) int=(grid=ultrafine)

title

0 1
C -0.436019870000000 -0.000001503000000 1.035407288000000
C 0.589762206000000 -0.000013214000000 1.978500062000000
C 1.922247312000000 -0.000006201000000 1.571695588000000
C 2.228266034000000 -0.000021972000000 0.212569121000000
C 1.211087138000000 -0.000006405000000 -0.740153580000000
H -1.469242030000000 -0.000001950000000 1.352224613000000
H 0.343101091000000 -0.000008425000000 3.031629685000000
H 2.714694228000000 0.000011502000000 2.307032918000000
H 3.260261396000000 -0.000026554000000 -0.111551520000000
H 1.450707808000000 -0.000010108000000 -1.793985522000000
C -0.120402824000000 0.000022122000000 -0.323575940000000
I -1.658224104000000 0.000221203000000 -1.738019970000000
O -6.362039778000000 -0.000527259000000 -6.002924906000000
C -6.212718161000000 0.003387691000000 -7.212839590000000
C -4.825846723000000 0.013544853000000 -7.815868847000000
C -7.416191828000000 -0.001899462000000 -8.129243117000000
H -4.293137949000000 0.890946639000000 -7.452500222000000
H -4.282178104000000 -0.858867133000000 -7.456740300000000
H -4.832777576000000 0.016136725000000 -8.901151137999999
H -8.028369710000000 0.869744464000000 -7.904439466000000
H -8.017471253000000 -0.882151764000000 -7.908611163000000
H -7.152147082000000 0.002255380000000 -9.181910523000001

21benIacetone200.wfx

