%nprocs=4
%mem=4GB
#p pbepbe aug-cc-pvtz output=wfx scf=(conver=6) int=(grid=ultrafine)

title

0 1
C -0.436019870000000 -0.000001503000000 1.035407288000000
C 0.589762206000000 -0.000013214000000 1.978500062000000
C 1.922247312000000 -0.000006201000000 1.571695588000000
C 2.228266034000000 -0.000021972000000 0.212569121000000
C 1.211087138000000 -0.000006405000000 -0.740153580000000
H -1.469242030000000 -0.000001950000000 1.352224613000000
H 0.343101091000000 -0.000008425000000 3.031629685000000
H 2.714694228000000 0.000011502000000 2.307032918000000
H 3.260261396000000 -0.000026554000000 -0.111551520000000
H 1.450707808000000 -0.000010108000000 -1.793985522000000
C -0.120402824000000 0.000022122000000 -0.323575940000000
I -1.658224104000000 0.000221203000000 -1.738019970000000
O -4.598136681000000 -0.000246590000000 -4.403610744000000
C -4.448815064000000 0.003668360000000 -5.613525428000000
C -3.061943626000000 0.013825522000000 -6.216554685000000
C -5.652288731000000 -0.001618793000000 -6.529928955000000
H -2.529234852000000 0.891227308000000 -5.853186060000000
H -2.518275007000000 -0.858586464000000 -5.857426138000000
H -3.068874479000000 0.016417394000000 -7.301836976000000
H -6.264466613000000 0.870025133000000 -6.305125304000000
H -6.253568156000000 -0.881871095000000 -6.309297001000000
H -5.388243985000000 0.002536049000000 -7.582596361000000

21benIacetone125.wfx

