%nprocs=4
%mem=4GB
#p pbepbe aug-cc-pvtz output=wfx scf=(conver=6) int=(grid=ultrafine)

title

0 1
O -6.362039778000000 -0.000527259000000 -6.002924906000000
C -6.212718161000000 0.003387691000000 -7.212839590000000
C -4.825846723000000 0.013544853000000 -7.815868847000000
C -7.416191828000000 -0.001899462000000 -8.129243117000000
H -4.293137949000000 0.890946639000000 -7.452500222000000
H -4.282178104000000 -0.858867133000000 -7.456740300000000
H -4.832777576000000 0.016136725000000 -8.901151137999999
H -8.028369710000000 0.869744464000000 -7.904439466000000
H -8.017471253000000 -0.882151764000000 -7.908611163000000
H -7.152147082000000 0.002255380000000 -9.181910523000001

21benIacetone200_2.wfx

