%nprocs=4
%mem=4GB
#p pbepbe aug-cc-pvtz output=wfx scf=(conver=6) int=(grid=ultrafine)

title

0 1
O -4.127762522000000 -0.000171745000000 -3.977126967000000
C -3.978440905000000 0.003743205000000 -5.187041651000000
C -2.591569467000000 0.013900367000000 -5.790070908000000
C -5.181914572000000 -0.001543948000000 -6.103445178000000
H -2.058860693000000 0.891302153000000 -5.426702283000000
H -2.047900848000000 -0.858511619000000 -5.430942361000000
H -2.598500320000000 0.016492239000000 -6.875353199000000
H -5.794092454000000 0.870099978000000 -5.878641527000000
H -5.783193997000000 -0.881796250000000 -5.882813224000000
H -4.917869826000000 0.002610894000000 -7.156112584000000

21benIacetone105_2.wfx

