%nprocs=4
%mem=4GB
#p pbepbe aug-cc-pvtz output=wfx scf=(conver=6) int=(grid=ultrafine)

title

0 1
O -3.657388363000000 -0.000096900000000 -3.550643190000000
C -3.508066746000000 0.003818050000000 -4.760557874000000
C -2.121195308000000 0.013975212000000 -5.363587131000000
C -4.711540413000000 -0.001469103000000 -5.676961401000000
H -1.588486534000000 0.891376998000000 -5.000218506000000
H -1.577526689000000 -0.858436774000000 -5.004458584000000
H -2.128126161000000 0.016567084000000 -6.448869422000000
H -5.323718295000000 0.870174823000000 -5.452157750000000
H -5.312819838000000 -0.881721405000000 -5.456329447000000
H -4.447495667000000 0.002685739000000 -6.729628807000000

21benIacetone085_2.wfx

