%nprocs=4
%mem=4GB
#p pbepbe aug-cc-pvtz output=wfx scf=(conver=6) int=(grid=ultrafine)

title

0 1
C -0.436019870000000 -0.000001503000000 1.035407288000000
C 0.589762206000000 -0.000013214000000 1.978500062000000
C 1.922247312000000 -0.000006201000000 1.571695588000000
C 2.228266034000000 -0.000021972000000 0.212569121000000
C 1.211087138000000 -0.000006405000000 -0.740153580000000
H -1.469242030000000 -0.000001950000000 1.352224613000000
H 0.343101091000000 -0.000008425000000 3.031629685000000
H 2.714694228000000 0.000011502000000 2.307032918000000
H 3.260261396000000 -0.000026554000000 -0.111551520000000
H 1.450707808000000 -0.000010108000000 -1.793985522000000
C -0.120402824000000 0.000022122000000 -0.323575940000000
I -1.658224104000000 0.000221203000000 -1.738019970000000
O -4.127762522000000 -0.000171745000000 -3.977126967000000
C -3.978440905000000 0.003743205000000 -5.187041651000000
C -2.591569467000000 0.013900367000000 -5.790070908000000
C -5.181914572000000 -0.001543948000000 -6.103445178000000
H -2.058860693000000 0.891302153000000 -5.426702283000000
H -2.047900848000000 -0.858511619000000 -5.430942361000000
H -2.598500320000000 0.016492239000000 -6.875353199000000
H -5.794092454000000 0.870099978000000 -5.878641527000000
H -5.783193997000000 -0.881796250000000 -5.882813224000000
H -4.917869826000000 0.002610894000000 -7.156112584000000

21benIacetone105.wfx

