%nprocs=4
%mem=4GB
#p pbepbe aug-cc-pvtz output=wfx scf=(conver=6) int=(grid=ultrafine)

title

0 1
O -4.598136681000000 -0.000246590000000 -4.403610744000000
C -4.448815064000000 0.003668360000000 -5.613525428000000
C -3.061943626000000 0.013825522000000 -6.216554685000000
C -5.652288731000000 -0.001618793000000 -6.529928955000000
H -2.529234852000000 0.891227308000000 -5.853186060000000
H -2.518275007000000 -0.858586464000000 -5.857426138000000
H -3.068874479000000 0.016417394000000 -7.301836976000000
H -6.264466613000000 0.870025133000000 -6.305125304000000
H -6.253568156000000 -0.881871095000000 -6.309297001000000
H -5.388243985000000 0.002536049000000 -7.582596361000000

21benIacetone125_2.wfx

