%nprocs=4
%mem=4GB
#p pbepbe aug-cc-pvtz output=wfx scf=(conver=6) int=(grid=ultrafine)

title

0 1
O -5.186104380000000 -0.000340146000000 -4.936715464000000
C -5.036782763000000 0.003574804000000 -6.146630148000000
C -3.649911325000000 0.013731966000000 -6.749659405000000
C -6.240256430000000 -0.001712349000000 -7.063033675000000
H -3.117202551000000 0.891133752000000 -6.386290780000000
H -3.106242706000000 -0.858680020000000 -6.390530858000000
H -3.656842178000000 0.016323838000000 -7.834941696000000
H -6.852434312000000 0.869931577000000 -6.838230024000000
H -6.841535855000000 -0.881964651000000 -6.842401721000000
H -5.976211684000000 0.002442493000000 -8.115701080999999

21benIacetone150_2.wfx

