%nprocs=4
%mem=4GB
#p pbepbe aug-cc-pvtz output=wfx scf=(conver=6) int=(grid=ultrafine)

title

0 1
O -3.539794823000000 -0.000078189000000 -3.444022246000000
C -3.390473206000000 0.003836761000000 -4.653936930000000
C -2.003601768000000 0.013993923000000 -5.256966187000000
C -4.593946873000000 -0.001450392000000 -5.570340457000000
H -1.470892994000000 0.891395709000000 -4.893597562000000
H -1.459933149000000 -0.858418063000000 -4.897837640000000
H -2.010532621000000 0.016585795000000 -6.342248478000000
H -5.206124755000000 0.870193534000000 -5.345536806000000
H -5.195226298000000 -0.881702694000000 -5.349708503000000
H -4.329902127000000 0.002704450000000 -6.623007863000000

21benIacetone080_2.wfx

