%nprocs=4
%mem=4GB
#p pbepbe aug-cc-pvtz output=wfx scf=(conver=6) int=(grid=ultrafine)

title

0 1
C -0.436019870000000 -0.000001503000000 1.035407288000000
C 0.589762206000000 -0.000013214000000 1.978500062000000
C 1.922247312000000 -0.000006201000000 1.571695588000000
C 2.228266034000000 -0.000021972000000 0.212569121000000
C 1.211087138000000 -0.000006405000000 -0.740153580000000
H -1.469242030000000 -0.000001950000000 1.352224613000000
H 0.343101091000000 -0.000008425000000 3.031629685000000
H 2.714694228000000 0.000011502000000 2.307032918000000
H 3.260261396000000 -0.000026554000000 -0.111551520000000
H 1.450707808000000 -0.000010108000000 -1.793985522000000
C -0.120402824000000 0.000022122000000 -0.323575940000000
I -1.658224104000000 0.000221203000000 -1.738019970000000
O -3.539794823000000 -0.000078189000000 -3.444022246000000
C -3.390473206000000 0.003836761000000 -4.653936930000000
C -2.003601768000000 0.013993923000000 -5.256966187000000
C -4.593946873000000 -0.001450392000000 -5.570340457000000
H -1.470892994000000 0.891395709000000 -4.893597562000000
H -1.459933149000000 -0.858418063000000 -4.897837640000000
H -2.010532621000000 0.016585795000000 -6.342248478000000
H -5.206124755000000 0.870193534000000 -5.345536806000000
H -5.195226298000000 -0.881702694000000 -5.349708503000000
H -4.329902127000000 0.002704450000000 -6.623007863000000

21benIacetone080.wfx

