%nprocs=4
%mem=4GB
#p pbepbe aug-cc-pvtz output=wfx scf=(conver=6) int=(grid=ultrafine)

title

0 1
C -0.436019870000000 -0.000001503000000 1.035407288000000
C 0.589762206000000 -0.000013214000000 1.978500062000000
C 1.922247312000000 -0.000006201000000 1.571695588000000
C 2.228266034000000 -0.000021972000000 0.212569121000000
C 1.211087138000000 -0.000006405000000 -0.740153580000000
H -1.469242030000000 -0.000001950000000 1.352224613000000
H 0.343101091000000 -0.000008425000000 3.031629685000000
H 2.714694228000000 0.000011502000000 2.307032918000000
H 3.260261396000000 -0.000026554000000 -0.111551520000000
H 1.450707808000000 -0.000010108000000 -1.793985522000000
C -0.120402824000000 0.000022122000000 -0.323575940000000
I -1.658224104000000 0.000221203000000 -1.738019970000000
O -3.892575443000000 -0.000134323000000 -3.763885079000000
C -3.743253826000000 0.003780627000000 -4.973799763000000
C -2.356382388000000 0.013937789000000 -5.576829020000000
C -4.946727493000000 -0.001506526000000 -5.890203290000000
H -1.823673614000000 0.891339575000000 -5.213460395000000
H -1.812713769000000 -0.858474197000000 -5.217700473000000
H -2.363313241000000 0.016529661000000 -6.662111311000000
H -5.558905375000000 0.870137400000000 -5.665399639000000
H -5.548006918000000 -0.881758828000000 -5.669571336000000
H -4.682682747000000 0.002648316000000 -6.942870696000000

21benIacetone095.wfx

