%nprocs=4
%mem=4GB
#p pbepbe aug-cc-pvtz output=wfx scf=(conver=6) int=(grid=ultrafine)

title

0 1
C -0.235164025000000 0.002086093000000 0.132755180000000
C -0.238177601000000 0.001189285000000 1.525603690000000
C 0.955845752000000 -0.002137887000000 2.242723198000000
C 2.165456711000000 -0.004625136000000 1.552251769000000
C 2.182877035000000 -0.003791485000000 0.158976860000000
C 0.981045016000000 -0.000426079000000 -0.546038572000000
Cl -1.748955125000000 0.004260493000000 2.378483547000000
H 0.930822557000000 -0.002763332000000 3.322933540000000
H 3.093652555000000 -0.007217456000000 2.107162249000000
H 3.124112655000000 -0.005745788000000 -0.372313104000000
H 0.985592531000000 0.000253534000000 -1.627466794000000
H -1.172880264000000 0.004699747000000 -0.404018294000000
N -4.737308575000000 0.003242346000000 4.084887352000000
C -5.565398356000000 -1.074327481000000 3.579322889000000
C -4.447708863000000 -0.203245024000000 5.490552530000000
C -5.398680598000000 1.278906762000000 3.890505493000000
H -5.360921666000000 -0.220173683000000 6.107518739000000
H -3.927678949000000 -1.150634496000000 5.622933375000000
H -3.804044129000000 0.596184577000000 5.854047318000000
H -6.360183642000000 1.337328028000000 4.426211988000000
H -4.757868918000000 2.083018763000000 4.248546065000000
H -5.587783498000000 1.436583026000000 2.829918484000000
H -6.535356714000000 -1.135525204000000 4.099248950000000
H -5.755191933000000 -0.924427122000000 2.517719792000000
H -5.048836689000000 -2.024444099000000 3.705330829000000

22benClNm3110.wfx

