%nprocs=4
%mem=4GB
#p pbepbe aug-cc-pvtz output=wfx scf=(conver=6) int=(grid=ultrafine)

title

0 1
N -5.144799476000000 0.003103512000000 4.317572018000000
C -5.972889257000000 -1.074466315000000 3.812007555000000
C -4.855199764000000 -0.203383858000000 5.723237196000000
C -5.806171499000000 1.278767928000000 4.123190159000000
H -6.942847615000000 -1.135664038000000 4.331933616000000
H -6.162682834000000 -0.924565956000000 2.750404458000000
H -5.456327590000000 -2.024582933000000 3.938015495000000
H -5.768412567000000 -0.220312517000000 6.340203405000000
H -4.335169850000000 -1.150773330000000 5.855618041000000
H -4.211535030000000 0.596045743000000 6.086731984000000
H -6.767674543000000 1.337189194000000 4.658896654000000
H -5.165359819000000 2.082879929000000 4.481230731000000
H -5.995274399000000 1.436444192000000 3.062603150000000

22benClNm3125_2.wfx

