%nprocs=4
%mem=4GB
#p pbepbe aug-cc-pvtz output=wfx scf=(conver=6) int=(grid=ultrafine)

title

0 1
C -0.235164025000000 0.002086093000000 0.132755180000000
C -0.238177601000000 0.001189285000000 1.525603690000000
C 0.955845752000000 -0.002137887000000 2.242723198000000
C 2.165456711000000 -0.004625136000000 1.552251769000000
C 2.182877035000000 -0.003791485000000 0.158976860000000
C 0.981045016000000 -0.000426079000000 -0.546038572000000
Cl -1.748955125000000 0.004260493000000 2.378483547000000
H 0.930822557000000 -0.002763332000000 3.322933540000000
H 3.093652555000000 -0.007217456000000 2.107162249000000
H 3.124112655000000 -0.005745788000000 -0.372313104000000
H 0.985592531000000 0.000253534000000 -1.627466794000000
H -1.172880264000000 0.004699747000000 -0.404018294000000
N -5.823950978000000 0.002872122000000 4.705379795000000
C -6.652040759000000 -1.074697705000000 4.199815332000000
C -5.534351266000000 -0.203615248000000 6.111044973000000
C -6.485323001000000 1.278536538000000 4.510997936000000
H -6.447564069000000 -0.220543907000000 6.728011182000000
H -5.014321352000000 -1.151004720000000 6.243425818000000
H -4.890686532000000 0.595814353000000 6.474539761000000
H -7.446826045000000 1.336957804000000 5.046704431000000
H -5.844511321000000 2.082648539000000 4.869038508000000
H -6.674425901000000 1.436212802000000 3.450410927000000
H -7.621999117000000 -1.135895428000000 4.719741393000000
H -6.841834336000000 -0.924797346000000 3.138212235000000
H -6.135479092000000 -2.024814323000000 4.325823272000000

22benClNm3150.wfx

