%nprocs=4
%mem=4GB
#p pbepbe aug-cc-pvtz output=wfx scf=(conver=6) int=(grid=ultrafine)

title

0 1
C -0.235164025000000 0.002086093000000 0.132755180000000
C -0.238177601000000 0.001189285000000 1.525603690000000
C 0.955845752000000 -0.002137887000000 2.242723198000000
C 2.165456711000000 -0.004625136000000 1.552251769000000
C 2.182877035000000 -0.003791485000000 0.158976860000000
C 0.981045016000000 -0.000426079000000 -0.546038572000000
Cl -1.748955125000000 0.004260493000000 2.378483547000000
H 0.930822557000000 -0.002763332000000 3.322933540000000
H 3.093652555000000 -0.007217456000000 2.107162249000000
H 3.124112655000000 -0.005745788000000 -0.372313104000000
H 0.985592531000000 0.000253534000000 -1.627466794000000
H -1.172880264000000 0.004699747000000 -0.404018294000000
N -4.058157072000000 0.003473737000000 3.697079575000000
C -4.886246853000000 -1.074096090000000 3.191515112000000
C -3.768557360000000 -0.203013633000000 5.102744753000000
C -4.719529095000000 1.279138153000000 3.502697716000000
H -4.681770163000000 -0.219942292000000 5.719710962000000
H -3.248527446000000 -1.150403105000000 5.235125598000000
H -3.124892626000000 0.596415968000000 5.466239541000000
H -5.681032139000000 1.337559419000000 4.038404211000000
H -4.078717415000000 2.083250154000000 3.860738288000000
H -4.908631995000000 1.436814417000000 2.442110707000000
H -5.856205211000000 -1.135293813000000 3.711441173000000
H -5.076040430000000 -0.924195731000000 2.129912015000000
H -4.369685186000000 -2.024212708000000 3.317523052000000

22benClNm3085.wfx

