%nprocs=4
%mem=4GB
#p pbepbe aug-cc-pvtz output=wfx scf=(conver=6) int=(grid=ultrafine)

title

0 1
C -0.235164025000000 0.002086093000000 0.132755180000000
C -0.238177601000000 0.001189285000000 1.525603690000000
C 0.955845752000000 -0.002137887000000 2.242723198000000
C 2.165456711000000 -0.004625136000000 1.552251769000000
C 2.182877035000000 -0.003791485000000 0.158976860000000
C 0.981045016000000 -0.000426079000000 -0.546038572000000
Cl -1.748955125000000 0.004260493000000 2.378483547000000
H 0.930822557000000 -0.002763332000000 3.322933540000000
H 3.093652555000000 -0.007217456000000 2.107162249000000
H 3.124112655000000 -0.005745788000000 -0.372313104000000
H 0.985592531000000 0.000253534000000 -1.627466794000000
H -1.172880264000000 0.004699747000000 -0.404018294000000
N -4.465561134000000 0.003334932000000 3.929714654000000
C -5.293650915000000 -1.074234895000000 3.424150191000000
C -4.175961422000000 -0.203152438000000 5.335379832000000
C -5.126933157000000 1.278999348000000 3.735332795000000
H -5.089174225000000 -0.220081097000000 5.952346041000000
H -3.655931508000000 -1.150541910000000 5.467760677000000
H -3.532296688000000 0.596277163000000 5.698874620000000
H -6.088436201000000 1.337420614000000 4.271039290000000
H -4.486121477000000 2.083111349000000 4.093373367000000
H -5.316036057000000 1.436675612000000 2.674745786000000
H -6.263609273000000 -1.135432618000000 3.944076252000000
H -5.483444492000000 -0.924334536000000 2.362547094000000
H -4.777089248000000 -2.024351513000000 3.550158131000000

22benClNm3100.wfx

