%nprocs=4
%mem=4GB
#p pbepbe aug-cc-pvtz output=wfx scf=(conver=6) int=(grid=ultrafine)

title

0 1
C -0.235164025000000 0.002086093000000 0.132755180000000
C -0.238177601000000 0.001189285000000 1.525603690000000
C 0.955845752000000 -0.002137887000000 2.242723198000000
C 2.165456711000000 -0.004625136000000 1.552251769000000
C 2.182877035000000 -0.003791485000000 0.158976860000000
C 0.981045016000000 -0.000426079000000 -0.546038572000000
Cl -1.748955125000000 0.004260493000000 2.378483547000000
H 0.930822557000000 -0.002763332000000 3.322933540000000
H 3.093652555000000 -0.007217456000000 2.107162249000000
H 3.124112655000000 -0.005745788000000 -0.372313104000000
H 0.985592531000000 0.000253534000000 -1.627466794000000
H -1.172880264000000 0.004699747000000 -0.404018294000000
N -4.329817673000000 0.003381180000000 3.852202686000000
C -5.157907454000000 -1.074188647000000 3.346638223000000
C -4.040217961000000 -0.203106190000000 5.257867864000000
C -4.991189696000000 1.279045596000000 3.657820827000000
H -4.953430764000000 -0.220034849000000 5.874834073000000
H -3.520188047000000 -1.150495662000000 5.390248709000000
H -3.396553227000000 0.596323411000000 5.621362652000000
H -5.952692740000000 1.337466862000000 4.193527322000000
H -4.350378016000000 2.083157597000000 4.015861399000000
H -5.180292596000000 1.436721860000000 2.597233818000000
H -6.127865812000000 -1.135386370000000 3.866564284000000
H -5.347701031000000 -0.924288288000000 2.285035126000000
H -4.641345787000000 -2.024305265000000 3.472646163000000

22benClNm3095.wfx

