%nprocs=4
%mem=4GB
#p pbepbe aug-cc-pvtz output=wfx scf=(conver=6) int=(grid=ultrafine)

title

0 1
C -0.235164025000000 0.002086093000000 0.132755180000000
C -0.238177601000000 0.001189285000000 1.525603690000000
C 0.955845752000000 -0.002137887000000 2.242723198000000
C 2.165456711000000 -0.004625136000000 1.552251769000000
C 2.182877035000000 -0.003791485000000 0.158976860000000
C 0.981045016000000 -0.000426079000000 -0.546038572000000
Cl -1.748955125000000 0.004260493000000 2.378483547000000
H 0.930822557000000 -0.002763332000000 3.322933540000000
H 3.093652555000000 -0.007217456000000 2.107162249000000
H 3.124112655000000 -0.005745788000000 -0.372313104000000
H 0.985592531000000 0.000253534000000 -1.627466794000000
H -1.172880264000000 0.004699747000000 -0.404018294000000
N -4.601478274000000 0.003288624000000 4.007325796000000
C -5.429568055000000 -1.074281203000000 3.501761333000000
C -4.311878562000000 -0.203198746000000 5.412990974000000
C -5.262850297000000 1.278953040000000 3.812943937000000
H -5.225091365000000 -0.220127405000000 6.029957183000000
H -3.791848648000000 -1.150588218000000 5.545371819000000
H -3.668213828000000 0.596230855000000 5.776485762000000
H -6.224353341000000 1.337374306000000 4.348650432000000
H -4.622038617000000 2.083065041000000 4.170984509000000
H -5.451953197000000 1.436629304000000 2.752356928000000
H -6.399526413000000 -1.135478926000000 4.021687394000000
H -5.619361632000000 -0.924380844000000 2.440158236000000
H -4.913006388000000 -2.024397821000000 3.627769273000000

22benClNm3105.wfx

