%nprocs=4
%mem=4GB
#p pbepbe aug-cc-pvtz output=wfx scf=(conver=6) int=(grid=ultrafine)

title

0 1
N -7.182253983000000 0.002409341000000 5.480995348000000
C -8.010343764000000 -1.075160486000000 4.975430885000000
C -6.892654271000000 -0.204078029000000 6.886660526000000
C -7.843626006000000 1.278073757000000 5.286613489000000
H -8.980302121999999 -1.136358209000000 5.495356946000000
H -8.200137341000000 -0.925260127000000 3.913827788000000
H -7.493782097000000 -2.025277104000000 5.101438825000000
H -7.805867074000000 -0.221006688000000 7.503626735000000
H -6.372624357000000 -1.151467501000000 7.019041371000000
H -6.248989537000000 0.595351572000000 7.250155314000000
H -8.805129050000000 1.336495023000000 5.822319984000000
H -7.202814326000000 2.082185758000000 5.644654061000000
H -8.032728905999999 1.435750021000000 4.226026480000000

22benClNm3200_2.wfx

