%nprocs=4
%mem=4GB
#p pbepbe aug-cc-pvtz output=wfx scf=(conver=6) int=(grid=ultrafine)

title

0 1
N -4.737308575000000 0.003242346000000 4.084887352000000
C -5.565398356000000 -1.074327481000000 3.579322889000000
C -4.447708863000000 -0.203245024000000 5.490552530000000
C -5.398680598000000 1.278906762000000 3.890505493000000
H -6.535356714000000 -1.135525204000000 4.099248950000000
H -5.755191933000000 -0.924427122000000 2.517719792000000
H -5.048836689000000 -2.024444099000000 3.705330829000000
H -5.360921666000000 -0.220173683000000 6.107518739000000
H -3.927678949000000 -1.150634496000000 5.622933375000000
H -3.804044129000000 0.596184577000000 5.854047318000000
H -6.360183642000000 1.337328028000000 4.426211988000000
H -4.757868918000000 2.083018763000000 4.248546065000000
H -5.587783498000000 1.436583026000000 2.829918484000000

22benClNm3110_2.wfx

