%nprocs=4
%mem=4GB
#p pbepbe aug-cc-pvtz output=wfx scf=(conver=6) int=(grid=ultrafine)

title

0 1
C -0.235164025000000 0.002086093000000 0.132755180000000
C -0.238177601000000 0.001189285000000 1.525603690000000
C 0.955845752000000 -0.002137887000000 2.242723198000000
C 2.165456711000000 -0.004625136000000 1.552251769000000
C 2.182877035000000 -0.003791485000000 0.158976860000000
C 0.981045016000000 -0.000426079000000 -0.546038572000000
Cl -1.748955125000000 0.004260493000000 2.378483547000000
H 0.930822557000000 -0.002763332000000 3.322933540000000
H 3.093652555000000 -0.007217456000000 2.107162249000000
H 3.124112655000000 -0.005745788000000 -0.372313104000000
H 0.985592531000000 0.000253534000000 -1.627466794000000
H -1.172880264000000 0.004699747000000 -0.404018294000000
N -5.144799476000000 0.003103512000000 4.317572018000000
C -5.972889257000000 -1.074466315000000 3.812007555000000
C -4.855199764000000 -0.203383858000000 5.723237196000000
C -5.806171499000000 1.278767928000000 4.123190159000000
H -5.768412567000000 -0.220312517000000 6.340203405000000
H -4.335169850000000 -1.150773330000000 5.855618041000000
H -4.211535030000000 0.596045743000000 6.086731984000000
H -6.767674543000000 1.337189194000000 4.658896654000000
H -5.165359819000000 2.082879929000000 4.481230731000000
H -5.995274399000000 1.436444192000000 3.062603150000000
H -6.942847615000000 -1.135664038000000 4.331933616000000
H -6.162682834000000 -0.924565956000000 2.750404458000000
H -5.456327590000000 -2.024582933000000 3.938015495000000

22benClNm3125.wfx

