%nprocs=4
%mem=4GB
#p pbepbe aug-cc-pvtz output=wfx scf=(conver=6) int=(grid=ultrafine)

title

0 1
N -4.209721622000000 0.003371152000000 3.783772419000000
C -5.035541622000000 -1.075353848000000 3.275617419000000
C -3.916922622000000 -0.203286848000000 5.189234419000000
C -4.868505622000000 1.280556152000000 3.587089419000000
H -6.005773622000000 -1.138811848000000 3.793398419000000
H -5.222549622000000 -0.924541848000000 2.213626419000000
H -4.516617622000000 -2.024298848000000 3.400951419000000
H -4.828037622000000 -0.220569848000000 5.808122419000000
H -3.395430622000000 -1.150210848000000 5.319376419000000
H -3.271779622000000 0.596054152000000 5.550370419000000
H -5.829923622000000 1.341841152000000 4.121320419000000
H -4.225444622000000 2.083351152000000 3.944120419000000
H -5.054984622000000 1.437057152000000 2.525841419000000

23benBrNm3090_2.wfx

