%nprocs=4
%mem=4GB
#p pbepbe aug-cc-pvtz output=wfx scf=(conver=6) int=(grid=ultrafine)

title

0 1
N -4.599787922000000 0.003154852000000 4.006695219000000
C -5.425607922000000 -1.075570148000000 3.498540219000000
C -4.306988922000000 -0.203503148000000 5.412157219000000
C -5.258571922000000 1.280339852000000 3.810012219000000
H -6.395839922000000 -1.139028148000000 4.016321219000000
H -5.612615922000000 -0.924758148000000 2.436549219000000
H -4.906683922000000 -2.024515148000000 3.623874219000000
H -5.218103922000000 -0.220786148000000 6.031045219000000
H -3.785496922000000 -1.150427148000000 5.542299219000000
H -3.661845922000000 0.595837852000000 5.773293219000000
H -6.219989922000000 1.341624852000000 4.344243219000000
H -4.615510922000000 2.083134852000000 4.167043219000000
H -5.445050922000000 1.436840852000000 2.748764219000000

23benBrNm3105_2.wfx

