%nprocs=4
%mem=4GB
#p pbepbe aug-cc-pvtz output=wfx scf=(conver=6) int=(grid=ultrafine)

title

0 1
C -0.223913000000000 0.002109000000000 0.127404000000000
C -0.229554000000000 0.001265000000000 1.520572000000000
C 0.966066000000000 -0.002100000000000 2.235729000000000
C 2.176417000000000 -0.004636000000000 1.545888000000000
C 2.194095000000000 -0.003818000000000 0.152623000000000
C 0.992179000000000 -0.000449000000000 -0.552274000000000
Br -1.869237000000000 0.004669000000000 2.446186000000000
H 0.946534000000000 -0.002734000000000 3.316252000000000
H 3.104760000000000 -0.007248000000000 2.100804000000000
H 3.135463000000000 -0.005789000000000 -0.378706000000000
H 0.996880000000000 0.000205000000000 -1.633817000000000
H -1.159029000000000 0.004715000000000 -0.414303000000000
N -3.949677422000000 0.003515352000000 3.635157219000000
C -4.775497422000000 -1.075209648000000 3.127002219000000
C -3.656878422000000 -0.203142648000000 5.040619219000000
C -4.608461422000000 1.280700352000000 3.438474219000000
H -4.567993422000000 -0.220425648000000 5.659507219000000
H -3.135386422000000 -1.150066648000000 5.170761219000000
H -3.011735422000000 0.596198352000000 5.401755219000000
H -5.569879422000000 1.341985352000000 3.972705219000000
H -3.965400422000000 2.083495352000000 3.795505219000000
H -4.794940422000000 1.437201352000000 2.377226219000000
H -5.745729422000000 -1.138667648000000 3.644783219000000
H -4.962505422000000 -0.924397648000000 2.065011219000000
H -4.256573422000000 -2.024154648000000 3.252336219000000

23benBrNm3080.wfx

