%nprocs=4
%mem=4GB
#p pbepbe aug-cc-pvtz output=wfx scf=(conver=6) int=(grid=ultrafine)

title

0 1
C -0.223913000000000 0.002109000000000 0.127404000000000
C -0.229554000000000 0.001265000000000 1.520572000000000
C 0.966066000000000 -0.002100000000000 2.235729000000000
C 2.176417000000000 -0.004636000000000 1.545888000000000
C 2.194095000000000 -0.003818000000000 0.152623000000000
C 0.992179000000000 -0.000449000000000 -0.552274000000000
Br -1.869237000000000 0.004669000000000 2.446186000000000
H 0.946534000000000 -0.002734000000000 3.316252000000000
H 3.104760000000000 -0.007248000000000 2.100804000000000
H 3.135463000000000 -0.005789000000000 -0.378706000000000
H 0.996880000000000 0.000205000000000 -1.633817000000000
H -1.159029000000000 0.004715000000000 -0.414303000000000
N -4.079699522000000 0.003443252000000 3.709464819000000
C -4.905519522000000 -1.075281748000000 3.201309819000000
C -3.786900522000000 -0.203214748000000 5.114926819000000
C -4.738483522000000 1.280628252000000 3.512781819000000
H -4.698015522000000 -0.220497748000000 5.733814819000000
H -3.265408522000000 -1.150138748000000 5.245068819000000
H -3.141757522000000 0.596126252000000 5.476062819000000
H -5.699901522000000 1.341913252000000 4.047012819000000
H -4.095422522000000 2.083423252000000 3.869812819000000
H -4.924962522000000 1.437129252000000 2.451533819000000
H -5.875751522000000 -1.138739748000000 3.719090819000000
H -5.092527522000000 -0.924469748000000 2.139318819000000
H -4.386595522000000 -2.024226748000000 3.326643819000000

23benBrNm3085.wfx

