%nprocs=4
%mem=4GB
#p pbepbe aug-cc-pvtz output=wfx scf=(conver=6) int=(grid=ultrafine)

title

0 1
N -4.729810022000000 0.003082752000000 4.081002819000000
C -5.555630022000000 -1.075642248000000 3.572847819000000
C -4.437011022000000 -0.203575248000000 5.486464819000000
C -5.388594022000000 1.280267752000000 3.884319819000000
H -6.525862022000000 -1.139100248000000 4.090628819000000
H -5.742638022000000 -0.924830248000000 2.510856819000000
H -5.036706022000000 -2.024587248000000 3.698181819000000
H -5.348126022000000 -0.220858248000000 6.105352819000000
H -3.915519022000000 -1.150499248000000 5.616606819000000
H -3.791868022000000 0.595765752000000 5.847600819000000
H -6.350012022000000 1.341552752000000 4.418550819000000
H -4.745533022000000 2.083062752000000 4.241350819000000
H -5.575073022000000 1.436768752000000 2.823071819000000

23benBrNm3110_2.wfx

