%nprocs=4
%mem=4GB
#p pbepbe aug-cc-pvtz output=wfx scf=(conver=6) int=(grid=ultrafine)

title

0 1
N -5.769986822000000 0.002505952000000 4.675463619000000
C -6.595806822000000 -1.076219048000000 4.167308619000000
C -5.477187822000000 -0.204152048000000 6.080925619000000
C -6.428770822000000 1.279690952000000 4.478780619000000
H -7.566038822000000 -1.139677048000000 4.685089619000000
H -6.782814822000000 -0.925407048000000 3.105317619000000
H -6.076882822000000 -2.025164048000000 4.292642619000000
H -6.388302822000000 -0.221435048000000 6.699813619000000
H -4.955695822000000 -1.151076048000000 6.211067619000000
H -4.832044822000000 0.595188952000000 6.442061619000000
H -7.390188822000000 1.340975952000000 5.013011619000000
H -5.785709822000000 2.082485952000000 4.835811619000000
H -6.615249822000000 1.436191952000000 3.417532619000000

23benBrNm3150_2.wfx

