%nprocs=4
%mem=4GB
#p pbepbe aug-cc-pvtz output=wfx scf=(conver=6) int=(grid=ultrafine)

title

0 1
N -4.079699522000000 0.003443252000000 3.709464819000000
C -4.905519522000000 -1.075281748000000 3.201309819000000
C -3.786900522000000 -0.203214748000000 5.114926819000000
C -4.738483522000000 1.280628252000000 3.512781819000000
H -5.875751522000000 -1.138739748000000 3.719090819000000
H -5.092527522000000 -0.924469748000000 2.139318819000000
H -4.386595522000000 -2.024226748000000 3.326643819000000
H -4.698015522000000 -0.220497748000000 5.733814819000000
H -3.265408522000000 -1.150138748000000 5.245068819000000
H -3.141757522000000 0.596126252000000 5.476062819000000
H -5.699901522000000 1.341913252000000 4.047012819000000
H -4.095422522000000 2.083423252000000 3.869812819000000
H -4.924962522000000 1.437129252000000 2.451533819000000

23benBrNm3085_2.wfx

