%nprocs=4
%mem=4GB
#p pbepbe aug-cc-pvtz output=wfx scf=(conver=6) int=(grid=ultrafine)

title

0 1
N -4.084023071000000 -0.001920809000000 3.720344133000000
C -4.933679071000000 1.033149191000000 3.159238133000000
C -4.703495071000000 -1.306036809000000 3.566359133000000
C -3.812042071000000 0.268621191000000 5.120656133000000
H -5.910312071000000 1.087565191000000 3.663909133000000
H -4.442258071000000 2.000152191000000 3.252809133000000
H -5.102147071000000 0.834587191000000 2.102074133000000
H -5.668260071000000 -1.372157809000000 4.092031133000000
H -4.871491071000000 -1.508554809000000 2.509885133000000
H -4.041322071000000 -2.074382809000000 3.961974133000000
H -4.730646071000000 0.283707191000000 5.726785133000000
H -3.148468071000000 -0.497280809000000 5.518751133000000
H -3.318809071000000 1.234424191000000 5.217298133000000

24benINm3080_2.wfx

