%nprocs=4
%mem=4GB
#p pbepbe aug-cc-pvtz output=wfx scf=(conver=6) int=(grid=ultrafine)

title

0 1
N -4.603902000000000 -0.001977000000000 4.016774000000000
C -5.453558000000000 1.033093000000000 3.455668000000000
C -5.223374000000000 -1.306093000000000 3.862789000000000
C -4.331921000000000 0.268565000000000 5.417086000000000
H -6.430191000000000 1.087509000000000 3.960339000000000
H -4.962137000000000 2.000096000000000 3.549239000000000
H -5.622026000000000 0.834531000000000 2.398504000000000
H -6.188139000000000 -1.372214000000000 4.388461000000000
H -5.391370000000000 -1.508611000000000 2.806315000000000
H -4.561201000000000 -2.074439000000000 4.258404000000000
H -5.250525000000000 0.283651000000000 6.023215000000000
H -3.668347000000000 -0.497337000000000 5.815181000000000
H -3.838688000000000 1.234368000000000 5.513728000000000

24benINm3100_2.wfx

