%nprocs=4
%mem=4GB
#p pbepbe aug-cc-pvtz output=wfx scf=(conver=6) int=(grid=ultrafine)

title

0 1
N -5.253982074000000 -0.002047263000000 4.387443283000000
C -6.103638074000000 1.033022737000000 3.826337283000000
C -5.873454074000000 -1.306163263000000 4.233458283000000
C -4.982001074000000 0.268494737000000 5.787755283000000
H -7.080271074000000 1.087438737000000 4.331008283000000
H -5.612217074000000 2.000025737000000 3.919908283000000
H -6.272106074000000 0.834460737000000 2.769173283000000
H -6.838219074000000 -1.372284263000000 4.759130283000000
H -6.041450074000000 -1.508681263000000 3.176984283000000
H -5.211281074000000 -2.074509263000000 4.629073283000000
H -5.900605074000000 0.283580737000000 6.393884283000000
H -4.318427074000000 -0.497407263000000 6.185850283000000
H -4.488768074000000 1.234297737000000 5.884397283000000

24benINm3125_2.wfx

