%nprocs=4
%mem=4GB
#p pbepbe aug-cc-pvtz output=wfx scf=(conver=6) int=(grid=ultrafine)

title

0 1
C 1.037288000000000 0.000539000000000 -0.582102000000000
C -0.176487000000000 -0.000271000000000 0.102715000000000
C -0.183174000000000 -0.000518000000000 1.498133000000000
C 1.019880000000000 0.000040000000000 2.205172000000000
C 2.228616000000000 0.000848000000000 1.511505000000000
C 2.241753000000000 0.001096000000000 0.118273000000000
I -2.004073000000000 -0.001696000000000 2.534377000000000
H 1.013157000000000 -0.000135000000000 3.286244000000000
H 3.159115000000000 0.001279000000000 2.063225000000000
H 3.181398000000000 0.001715000000000 -0.416415000000000
H 1.038283000000000 0.000729000000000 -1.663869000000000
H -1.109304000000000 -0.000688000000000 -0.443732000000000
N -7.203817871000000 -0.002258009000000 5.499220533000000
C -8.053473871000000 1.032811991000000 4.938114533000000
C -7.823289871000000 -1.306374009000000 5.345235533000000
C -6.931836871000000 0.268283991000000 6.899532533000000
H -7.850440871000000 0.283369991000000 7.505661533000000
H -6.268262871000000 -0.497618009000000 7.297627533000000
H -6.438603871000000 1.234086991000000 6.996174533000000
H -9.030106870999999 1.087227991000000 5.442785533000000
H -7.562052871000000 1.999814991000000 5.031685533000000
H -8.221941871000000 0.834249991000000 3.880950533000000
H -8.788054871000000 -1.372495009000000 5.870907533000000
H -7.991285871000000 -1.508892009000000 4.288761533000000
H -7.161116871000000 -2.074720009000000 5.740850533000000

24benINm3200.wfx

