%nprocs=4
%mem=4GB
#p pbepbe aug-cc-pvtz output=wfx scf=(conver=6) int=(grid=ultrafine)

title

0 1
N -4.473997421000000 -0.001962959000000 3.942703683000000
C -5.323653421000000 1.033107041000000 3.381597683000000
C -5.093469421000000 -1.306078959000000 3.788718683000000
C -4.202016421000000 0.268579041000000 5.343015683000000
H -6.300286421000000 1.087523041000000 3.886268683000000
H -4.832232421000000 2.000110041000000 3.475168683000000
H -5.492121421000000 0.834545041000000 2.324433683000000
H -6.058234421000000 -1.372199959000000 4.314390683000000
H -5.261465421000000 -1.508596959000000 2.732244683000000
H -4.431296421000000 -2.074424959000000 4.184333683000000
H -5.120620421000000 0.283665041000000 5.949144683000000
H -3.538442421000000 -0.497322959000000 5.741110683000000
H -3.708783421000000 1.234382041000000 5.439657683000000

24benINm3095_2.wfx

