%nprocs=4
%mem=4GB
#p pbepbe aug-cc-pvtz output=wfx scf=(conver=6) int=(grid=ultrafine)

title

0 1
C 1.037288000000000 0.000539000000000 -0.582102000000000
C -0.176487000000000 -0.000271000000000 0.102715000000000
C -0.183174000000000 -0.000518000000000 1.498133000000000
C 1.019880000000000 0.000040000000000 2.205172000000000
C 2.228616000000000 0.000848000000000 1.511505000000000
C 2.241753000000000 0.001096000000000 0.118273000000000
I -2.004073000000000 -0.001696000000000 2.534377000000000
H 1.013157000000000 -0.000135000000000 3.286244000000000
H 3.159115000000000 0.001279000000000 2.063225000000000
H 3.181398000000000 0.001715000000000 -0.416415000000000
H 1.038283000000000 0.000729000000000 -1.663869000000000
H -1.109304000000000 -0.000688000000000 -0.443732000000000
N -4.733980321000000 -0.001991059000000 4.090943383000000
C -5.583636321000000 1.033078941000000 3.529837383000000
C -5.353452321000000 -1.306107059000000 3.936958383000000
C -4.461999321000000 0.268550941000000 5.491255383000000
H -5.380603321000000 0.283636941000000 6.097384383000000
H -3.798425321000000 -0.497351059000000 5.889350383000000
H -3.968766321000000 1.234353941000000 5.587897383000000
H -6.560269321000000 1.087494941000000 4.034508383000000
H -5.092215321000000 2.000081941000000 3.623408383000000
H -5.752104321000000 0.834516941000000 2.472673383000000
H -6.318217321000000 -1.372228059000000 4.462630383000000
H -5.521448321000000 -1.508625059000000 2.880484383000000
H -4.691279321000000 -2.074453059000000 4.332573383000000

24benINm3105.wfx

