%nprocs=4
%mem=4GB
#p pbepbe aug-cc-pvtz output=wfx scf=(conver=6) int=(grid=ultrafine)

title

0 1
C 1.037288000000000 0.000539000000000 -0.582102000000000
C -0.176487000000000 -0.000271000000000 0.102715000000000
C -0.183174000000000 -0.000518000000000 1.498133000000000
C 1.019880000000000 0.000040000000000 2.205172000000000
C 2.228616000000000 0.000848000000000 1.511505000000000
C 2.241753000000000 0.001096000000000 0.118273000000000
I -2.004073000000000 -0.001696000000000 2.534377000000000
H 1.013157000000000 -0.000135000000000 3.286244000000000
H 3.159115000000000 0.001279000000000 2.063225000000000
H 3.181398000000000 0.001715000000000 -0.416415000000000
H 1.038283000000000 0.000729000000000 -1.663869000000000
H -1.109304000000000 -0.000688000000000 -0.443732000000000
N -5.903903371000000 -0.002117509000000 4.758022033000000
C -6.753559371000000 1.032952491000000 4.196916033000000
C -6.523375371000000 -1.306233509000000 4.604037033000000
C -5.631922371000000 0.268424491000000 6.158334033000000
H -6.550526371000000 0.283510491000000 6.764463033000000
H -4.968348371000000 -0.497477509000000 6.556429033000000
H -5.138689371000000 1.234227491000000 6.254976033000000
H -7.730192371000000 1.087368491000000 4.701587033000000
H -6.262138371000000 1.999955491000000 4.290487033000000
H -6.922027371000000 0.834390491000000 3.139752033000000
H -7.488140371000000 -1.372354509000000 5.129709033000000
H -6.691371371000000 -1.508751509000000 3.547563033000000
H -5.861202371000000 -2.074579509000000 4.999652033000000

24benINm3150.wfx

