%nprocs=4
%mem=4GB
#p pbepbe aug-cc-pvtz output=wfx scf=(conver=6) int=(grid=ultrafine)

title

0 1
N -4.344005971000000 -0.001948909000000 3.868583833000000
C -5.193661971000000 1.033121091000000 3.307477833000000
C -4.963477971000000 -1.306064909000000 3.714598833000000
C -4.072024971000000 0.268593091000000 5.268895833000000
H -6.170294971000000 1.087537091000000 3.812148833000000
H -4.702240971000000 2.000124091000000 3.401048833000000
H -5.362129971000000 0.834559091000000 2.250313833000000
H -5.928242971000000 -1.372185909000000 4.240270833000000
H -5.131473971000000 -1.508582909000000 2.658124833000000
H -4.301304971000000 -2.074410909000000 4.110213833000000
H -4.990628971000000 0.283679091000000 5.875024833000000
H -3.408450971000000 -0.497308909000000 5.666990833000000
H -3.578791971000000 1.234396091000000 5.365537833000000

24benINm3090_2.wfx

