%nprocs=4
%mem=4GB
#p pbepbe aug-cc-pvtz output=wfx scf=(conver=6) int=(grid=ultrafine)

title

0 1
C 1.037288000000000 0.000539000000000 -0.582102000000000
C -0.176487000000000 -0.000271000000000 0.102715000000000
C 2.241753000000000 0.001096000000000 0.118273000000000
H 1.038283000000000 0.000729000000000 -1.663869000000000
C -0.183174000000000 -0.000518000000000 1.498133000000000
H -1.109304000000000 -0.000688000000000 -0.443732000000000
C 2.228616000000000 0.000848000000000 1.511505000000000
H 3.181398000000000 0.001715000000000 -0.416415000000000
C 1.019880000000000 0.000040000000000 2.205172000000000
I -2.004073000000000 -0.001696000000000 2.534377000000000
H 3.159115000000000 0.001279000000000 2.063225000000000
H 1.013157000000000 -0.000135000000000 3.286244000000000

24benINm3150_1.wfx

