%nprocs=4
%mem=4GB
#p pbepbe aug-cc-pvtz output=wfx scf=(conver=6) int=(grid=ultrafine)

title

0 1
C 1.037288000000000 0.000539000000000 -0.582102000000000
C -0.176487000000000 -0.000271000000000 0.102715000000000
C -0.183174000000000 -0.000518000000000 1.498133000000000
C 1.019880000000000 0.000040000000000 2.205172000000000
C 2.228616000000000 0.000848000000000 1.511505000000000
C 2.241753000000000 0.001096000000000 0.118273000000000
I -2.004073000000000 -0.001696000000000 2.534377000000000
H 1.013157000000000 -0.000135000000000 3.286244000000000
H 3.159115000000000 0.001279000000000 2.063225000000000
H 3.181398000000000 0.001715000000000 -0.416415000000000
H 1.038283000000000 0.000729000000000 -1.663869000000000
H -1.109304000000000 -0.000688000000000 -0.443732000000000
N -4.603902000000000 -0.001977000000000 4.016774000000000
C -5.453558000000000 1.033093000000000 3.455668000000000
C -5.223374000000000 -1.306093000000000 3.862789000000000
C -4.331921000000000 0.268565000000000 5.417086000000000
H -5.250525000000000 0.283651000000000 6.023215000000000
H -3.668347000000000 -0.497337000000000 5.815181000000000
H -3.838688000000000 1.234368000000000 5.513728000000000
H -6.430191000000000 1.087509000000000 3.960339000000000
H -4.962137000000000 2.000096000000000 3.549239000000000
H -5.622026000000000 0.834531000000000 2.398504000000000
H -6.188139000000000 -1.372214000000000 4.388461000000000
H -5.391370000000000 -1.508611000000000 2.806315000000000
H -4.561201000000000 -2.074439000000000 4.258404000000000

24benINm3100.wfx

