%nprocs=4
%mem=4GB
#p pbepbe aug-cc-pvtz output=wfx scf=(conver=6) int=(grid=ultrafine)

title

0 1
N -7.203817871000000 -0.002258009000000 5.499220533000000
C -8.053473871000000 1.032811991000000 4.938114533000000
C -7.823289871000000 -1.306374009000000 5.345235533000000
C -6.931836871000000 0.268283991000000 6.899532533000000
H -9.030106870999999 1.087227991000000 5.442785533000000
H -7.562052871000000 1.999814991000000 5.031685533000000
H -8.221941871000000 0.834249991000000 3.880950533000000
H -8.788054871000000 -1.372495009000000 5.870907533000000
H -7.991285871000000 -1.508892009000000 4.288761533000000
H -7.161116871000000 -2.074720009000000 5.740850533000000
H -7.850440871000000 0.283369991000000 7.505661533000000
H -6.268262871000000 -0.497618009000000 7.297627533000000
H -6.438603871000000 1.234086991000000 6.996174533000000

24benINm3200_2.wfx

