%nprocs=4
%mem=4GB
#p pbepbe aug-cc-pvtz output=wfx scf=(conver=6) int=(grid=ultrafine)

title

0 1
N -4.733980321000000 -0.001991059000000 4.090943383000000
C -5.583636321000000 1.033078941000000 3.529837383000000
C -5.353452321000000 -1.306107059000000 3.936958383000000
C -4.461999321000000 0.268550941000000 5.491255383000000
H -6.560269321000000 1.087494941000000 4.034508383000000
H -5.092215321000000 2.000081941000000 3.623408383000000
H -5.752104321000000 0.834516941000000 2.472673383000000
H -6.318217321000000 -1.372228059000000 4.462630383000000
H -5.521448321000000 -1.508625059000000 2.880484383000000
H -4.691279321000000 -2.074453059000000 4.332573383000000
H -5.380603321000000 0.283636941000000 6.097384383000000
H -3.798425321000000 -0.497351059000000 5.889350383000000
H -3.968766321000000 1.234353941000000 5.587897383000000

24benINm3105_2.wfx

