%nprocs=4
%mem=4GB
#p pbepbe aug-cc-pvtz output=wfx scf=(conver=6) int=(grid=ultrafine)

title

0 1
C 1.037288000000000 0.000539000000000 -0.582102000000000
C -0.176487000000000 -0.000271000000000 0.102715000000000
C -0.183174000000000 -0.000518000000000 1.498133000000000
C 1.019880000000000 0.000040000000000 2.205172000000000
C 2.228616000000000 0.000848000000000 1.511505000000000
C 2.241753000000000 0.001096000000000 0.118273000000000
I -2.004073000000000 -0.001696000000000 2.534377000000000
H 1.013157000000000 -0.000135000000000 3.286244000000000
H 3.159115000000000 0.001279000000000 2.063225000000000
H 3.181398000000000 0.001715000000000 -0.416415000000000
H 1.038283000000000 0.000729000000000 -1.663869000000000
H -1.109304000000000 -0.000688000000000 -0.443732000000000
N -4.084023071000000 -0.001920809000000 3.720344133000000
C -4.933679071000000 1.033149191000000 3.159238133000000
C -4.703495071000000 -1.306036809000000 3.566359133000000
C -3.812042071000000 0.268621191000000 5.120656133000000
H -4.730646071000000 0.283707191000000 5.726785133000000
H -3.148468071000000 -0.497280809000000 5.518751133000000
H -3.318809071000000 1.234424191000000 5.217298133000000
H -5.910312071000000 1.087565191000000 3.663909133000000
H -4.442258071000000 2.000152191000000 3.252809133000000
H -5.102147071000000 0.834587191000000 2.102074133000000
H -5.668260071000000 -1.372157809000000 4.092031133000000
H -4.871491071000000 -1.508554809000000 2.509885133000000
H -4.041322071000000 -2.074382809000000 3.961974133000000

24benINm3080.wfx

