%nprocs=4
%mem=4GB
#p pbepbe aug-cc-pvtz output=wfx scf=(conver=6) int=(grid=ultrafine)

title

0 1
C 1.037288000000000 0.000539000000000 -0.582102000000000
C -0.176487000000000 -0.000271000000000 0.102715000000000
C -0.183174000000000 -0.000518000000000 1.498133000000000
C 1.019880000000000 0.000040000000000 2.205172000000000
C 2.228616000000000 0.000848000000000 1.511505000000000
C 2.241753000000000 0.001096000000000 0.118273000000000
I -2.004073000000000 -0.001696000000000 2.534377000000000
H 1.013157000000000 -0.000135000000000 3.286244000000000
H 3.159115000000000 0.001279000000000 2.063225000000000
H 3.181398000000000 0.001715000000000 -0.416415000000000
H 1.038283000000000 0.000729000000000 -1.663869000000000
H -1.109304000000000 -0.000688000000000 -0.443732000000000
N -4.473997421000000 -0.001962959000000 3.942703683000000
C -5.323653421000000 1.033107041000000 3.381597683000000
C -5.093469421000000 -1.306078959000000 3.788718683000000
C -4.202016421000000 0.268579041000000 5.343015683000000
H -5.120620421000000 0.283665041000000 5.949144683000000
H -3.538442421000000 -0.497322959000000 5.741110683000000
H -3.708783421000000 1.234382041000000 5.439657683000000
H -6.300286421000000 1.087523041000000 3.886268683000000
H -4.832232421000000 2.000110041000000 3.475168683000000
H -5.492121421000000 0.834545041000000 2.324433683000000
H -6.058234421000000 -1.372199959000000 4.314390683000000
H -5.261465421000000 -1.508596959000000 2.732244683000000
H -4.431296421000000 -2.074424959000000 4.184333683000000

24benINm3095.wfx

