%nprocs=4
%mem=4GB
#p pbepbe aug-cc-pvtz output=wfx scf=(conver=6) int=(grid=ultrafine)

title

0 1
C -0.189833176000000 -0.645396435000000 0.069807761000000
C 1.121636324000000 -0.354065576000000 0.439096514000000
C 1.486520953000000 0.962572632000000 0.712107225000000
C 0.549329390000000 1.989209324000000 0.617868956000000
C -0.757627135000000 1.681862630000000 0.246856908000000
C -1.138190460000000 0.370551816000000 -0.028582325000000
Br -2.038462778000000 3.070459841000000 0.115165429000000
H 1.852935245000000 -1.146434699000000 0.514119204000000
H 0.825048723000000 3.012176989000000 0.829385472000000
H 2.502259769000000 1.196433556000000 1.000317333000000
H -2.157140187000000 0.151608161000000 -0.313181471000000
H -0.480820487000000 -1.664983631000000 -0.142918416000000
S -4.458662776000000 6.107586708000000 -1.020050696000000
H -5.125010730000000 5.174091797000000 -1.704722905000000
C -3.129557824000000 6.348595384000000 -2.232479082000000
H -2.468796597000000 7.100358970000000 -1.809911382000000
H -2.566174118000000 5.432838230000000 -2.381488066000000
H -3.519744208000000 6.715450045000000 -3.176376625000000

25benBrmSH110.wfx

