%nprocs=4
%mem=4GB
#p pbepbe aug-cc-pvtz output=wfx scf=(conver=6) int=(grid=ultrafine)

title

0 1
C -0.189833176000000 -0.645396435000000 0.069807761000000
C 1.121636324000000 -0.354065576000000 0.439096514000000
C 1.486520953000000 0.962572632000000 0.712107225000000
C 0.549329390000000 1.989209324000000 0.617868956000000
C -0.757627135000000 1.681862630000000 0.246856908000000
C -1.138190460000000 0.370551816000000 -0.028582325000000
Br -2.038462778000000 3.070459841000000 0.115165429000000
H 1.852935245000000 -1.146434699000000 0.514119204000000
H 0.825048723000000 3.012176989000000 0.829385472000000
H 2.502259769000000 1.196433556000000 1.000317333000000
H -2.157140187000000 0.151608161000000 -0.313181471000000
H -0.480820487000000 -1.664983631000000 -0.142918416000000
S -4.339197330000000 5.957668637000000 -0.964014377000000
H -5.005545284000000 5.024173726000000 -1.648686586000000
C -3.010092378000000 6.198677313000000 -2.176442763000000
H -2.349331151000000 6.950440899000000 -1.753875063000000
H -2.446708672000000 5.282920159000000 -2.325451747000000
H -3.400278762000000 6.565531974000000 -3.120340306000000

25benBrmSH105.wfx

