%nprocs=4
%mem=4GB
#p pbepbe aug-cc-pvtz output=wfx scf=(conver=6) int=(grid=ultrafine)

title

0 1
C -0.189833176000000 -0.645396435000000 0.069807761000000
C 1.121636324000000 -0.354065576000000 0.439096514000000
C 1.486520953000000 0.962572632000000 0.712107225000000
C 0.549329390000000 1.989209324000000 0.617868956000000
C -0.757627135000000 1.681862630000000 0.246856908000000
C -1.138190460000000 0.370551816000000 -0.028582325000000
Br -2.038462778000000 3.070459841000000 0.115165429000000
H 1.852935245000000 -1.146434699000000 0.514119204000000
H 0.825048723000000 3.012176989000000 0.829385472000000
H 2.502259769000000 1.196433556000000 1.000317333000000
H -2.157140187000000 0.151608161000000 -0.313181471000000
H -0.480820487000000 -1.664983631000000 -0.142918416000000
S -4.215936931000000 5.802988251000000 -0.906198001000000
H -4.882284885000000 4.869493340000000 -1.590870210000000
C -2.886831979000000 6.043996927000000 -2.118626387000000
H -2.226070752000000 6.795760513000000 -1.696058687000000
H -2.323448273000000 5.128239773000000 -2.267635371000000
H -3.277018363000000 6.410851588000000 -3.062523930000000

25benBrmSH100.wfx

