%nprocs=4
%mem=4GB
#p pbepbe aug-cc-pvtz output=wfx scf=(conver=6) int=(grid=ultrafine)

title

0 1
S -3.810338426000000 5.293999688000000 -0.715948450000000
H -4.476686380000000 4.360504777000000 -1.400620659000000
C -2.481233474000000 5.535008364000000 -1.928376836000000
H -1.820472247000000 6.286771950000000 -1.505809136000000
H -1.917849768000000 4.619251210000000 -2.077385820000000
H -2.871419858000000 5.901863025000000 -2.872274379000000

25benBrmSH085_2.wfx

