%nprocs=4
%mem=4GB
#p pbepbe aug-cc-pvtz output=wfx scf=(conver=6) int=(grid=ultrafine)

title

0 1
S -4.801211405000000 6.537453515000000 -1.180726148000000
H -5.467559359000000 5.603958604000000 -1.865398357000000
C -3.472106453000000 6.778462191000000 -2.393154534000000
H -2.811345226000000 7.530225777000000 -1.970586834000000
H -2.908722747000000 5.862705037000000 -2.542163518000000
H -3.862292837000000 7.145316852000000 -3.337052077000000

25benBrmSH125_2.wfx

