%nprocs=4
%mem=4GB
#p pbepbe aug-cc-pvtz output=wfx scf=(conver=6) int=(grid=ultrafine)

title

0 1
S -6.362283329000000 8.496454211000000 -1.912960683000000
H -7.028631283000000 7.562959300000000 -2.597632892000000
C -5.033178377000000 8.737462887000000 -3.125389069000000
H -4.372417150000000 9.489226473000000 -2.702821369000000
H -4.469794671000000 7.821705733000000 -3.274398053000000
H -5.423364761000000 9.104317547999999 -4.069286612000000

25benBrmSH200_2.wfx

