%nprocs=4
%mem=4GB
#p pbepbe aug-cc-pvtz output=wfx scf=(conver=6) int=(grid=ultrafine)

title

0 1
C -0.189833176000000 -0.645396435000000 0.069807761000000
C 1.121636324000000 -0.354065576000000 0.439096514000000
C 1.486520953000000 0.962572632000000 0.712107225000000
C 0.549329390000000 1.989209324000000 0.617868956000000
C -0.757627135000000 1.681862630000000 0.246856908000000
C -1.138190460000000 0.370551816000000 -0.028582325000000
Br -2.038462778000000 3.070459841000000 0.115165429000000
H 1.852935245000000 -1.146434699000000 0.514119204000000
H 0.825048723000000 3.012176989000000 0.829385472000000
H 2.502259769000000 1.196433556000000 1.000317333000000
H -2.157140187000000 0.151608161000000 -0.313181471000000
H -0.480820487000000 -1.664983631000000 -0.142918416000000
S -6.362283329000000 8.496454211000000 -1.912960683000000
H -7.028631283000000 7.562959300000000 -2.597632892000000
C -5.033178377000000 8.737462887000000 -3.125389069000000
H -4.372417150000000 9.489226473000000 -2.702821369000000
H -4.469794671000000 7.821705733000000 -3.274398053000000
H -5.423364761000000 9.104317547999999 -4.069286612000000

25benBrmSH200.wfx

