%nprocs=4
%mem=4GB
#p pbepbe aug-cc-pvtz output=wfx scf=(conver=6) int=(grid=ultrafine)

title

0 1
S -4.339197330000000 5.957668637000000 -0.964014377000000
H -5.005545284000000 5.024173726000000 -1.648686586000000
C -3.010092378000000 6.198677313000000 -2.176442763000000
H -2.349331151000000 6.950440899000000 -1.753875063000000
H -2.446708672000000 5.282920159000000 -2.325451747000000
H -3.400278762000000 6.565531974000000 -3.120340306000000

25benBrmSH105_2.wfx

