%nprocs=4
%mem=4GB
#p pbepbe aug-cc-pvtz output=wfx scf=(conver=6) int=(grid=ultrafine)

title

0 1
S -3.036523638000000 6.140754859000000 1.195851248000000
H -4.252630132000000 5.649298276000000 0.942239898000000
C -2.612975467000000 6.554690855000000 -0.520196077000000
H -1.608273464000000 6.966984397000000 -0.491398899000000
H -2.607707641000000 5.668057527000000 -1.146316966000000
H -3.289171048000000 7.302728437000000 -0.921232085000000

26benImSH095_2.wfx

