%nprocs=4
%mem=4GB
#p pbepbe aug-cc-pvtz output=wfx scf=(conver=6) int=(grid=ultrafine)

title

0 1
C -0.755422531000000 -0.796459123000000 -1.023590391000000
C 0.634274834000000 -0.880017014000000 -1.075233285000000
C 1.406955202000000 0.199695367000000 -0.653144334000000
C 0.798863737000000 1.361204515000000 -0.180597909000000
C -0.593166787000000 1.434312023000000 -0.133597923000000
C -1.376239198000000 0.359205222000000 -0.553258516000000
I -1.514344238000000 3.173268101000000 0.573601106000000
H 1.110906949000000 -1.778801728000000 -1.440619836000000
H 1.399172302000000 2.197767355000000 0.147412751000000
H 2.486417780000000 0.142466525000000 -0.689380574000000
H -2.454252250000000 0.422581120000000 -0.512807958000000
H -1.362353593000000 -1.630564523000000 -1.348743149000000
S -3.236305050000000 6.530228463000000 1.277519685000000
H -4.452411544000000 6.038771880000000 1.023908335000000
C -2.812756879000000 6.944164459000000 -0.438527640000000
H -1.808054876000000 7.356458001000000 -0.409730462000000
H -2.807489053000000 6.057531131000000 -1.064648529000000
H -3.488952460000000 7.692202041000000 -0.839563648000000

26benImSH105.wfx

