%nprocs=4
%mem=4GB
#p pbepbe aug-cc-pvtz output=wfx scf=(conver=6) int=(grid=ultrafine)

title

0 1
S -2.731388666000000 5.545894629000000 1.071115439000000
H -3.947495160000000 5.054438046000000 0.817504089000000
C -2.307840495000000 5.959830625000000 -0.644931886000000
H -1.303138492000000 6.372124167000000 -0.616134708000000
H -2.302572669000000 5.073197297000000 -1.271052775000000
H -2.984036076000000 6.707868207000000 -1.045967894000000

26benImSH080_2.wfx

