%nprocs=4
%mem=4GB
#p pbepbe aug-cc-pvtz output=wfx scf=(conver=6) int=(grid=ultrafine)

title

0 1
S -2.929758370000000 5.932616108000000 1.152206785000000
H -4.145864864000000 5.441159525000000 0.898595435000000
C -2.506210199000000 6.346552104000000 -0.563840540000000
H -1.501508196000000 6.758845646000000 -0.535043362000000
H -2.500942373000000 5.459918776000000 -1.189961429000000
H -3.182405780000000 7.094589686000000 -0.964876548000000

26benImSH090_2.wfx

