%nprocs=4
%mem=4GB
#p pbepbe aug-cc-pvtz output=wfx scf=(conver=6) int=(grid=ultrafine)

title

0 1
C -0.755422531000000 -0.796459123000000 -1.023590391000000
C 0.634274834000000 -0.880017014000000 -1.075233285000000
C -1.376239198000000 0.359205222000000 -0.553258516000000
H -1.362353593000000 -1.630564523000000 -1.348743149000000
C 1.406955202000000 0.199695367000000 -0.653144334000000
H 1.110906949000000 -1.778801728000000 -1.440619836000000
C -0.593166787000000 1.434312023000000 -0.133597923000000
H -2.454252250000000 0.422581120000000 -0.512807958000000
C 0.798863737000000 1.361204515000000 -0.180597909000000
H 2.486417780000000 0.142466525000000 -0.689380574000000
I -1.514344238000000 3.173268101000000 0.573601106000000
H 1.399172302000000 2.197767355000000 0.147412751000000

26benImSH200_1.wfx

