%nprocs=4
%mem=4GB
#p pbepbe aug-cc-pvtz output=wfx scf=(conver=6) int=(grid=ultrafine)

title

0 1
S -3.138101273000000 6.338780327000000 1.237375065000000
H -4.354207767000000 5.847323744000000 0.983763715000000
C -2.714553102000000 6.752716323000000 -0.478672260000000
H -1.709851099000000 7.165009865000000 -0.449875082000000
H -2.709285276000000 5.866082995000000 -1.104793149000000
H -3.390748683000000 7.500753905000000 -0.879708268000000

26benImSH100_2.wfx

