%nprocs=4
%mem=4GB
#p pbepbe aug-cc-pvtz output=wfx scf=(conver=6) int=(grid=ultrafine)

title

0 1
S -3.236305050000000 6.530228463000000 1.277519685000000
H -4.452411544000000 6.038771880000000 1.023908335000000
C -2.812756879000000 6.944164459000000 -0.438527640000000
H -1.808054876000000 7.356458001000000 -0.409730462000000
H -2.807489053000000 6.057531131000000 -1.064648529000000
H -3.488952460000000 7.692202041000000 -0.839563648000000

26benImSH105_2.wfx

