%nprocs=4
%mem=4GB
#p pbepbe aug-cc-pvtz output=wfx scf=(conver=6) int=(grid=ultrafine)

title

0 1
BR -0.050439959000000 -4.200254829000000 1.818649757000000
C 0.078141653000000 -6.127803776000000 1.914381552000000
H 0.009447450000000 -6.523882110000000 0.908625057000000
H 1.031608148000000 -6.382538528000000 2.360676348000000
H -0.738619160000000 -6.492782883000000 2.524987886000000

27CH3Brben125_2.wfx

