%nprocs=4
%mem=4GB
#p pbepbe aug-cc-pvtz output=wfx scf=(conver=6) int=(grid=ultrafine)

title

0 1
BR -0.042861403000000 -3.663177298000000 1.791706470000000
C 0.085720209000000 -5.590726245000000 1.887438265000000
H 0.017026006000000 -5.986804579000000 0.881681770000000
H 1.039186704000000 -5.845460997000000 2.333733061000000
H -0.731040604000000 -5.955705352000000 2.498044599000000

27CH3Brben110_2.wfx

