%nprocs=4
%mem=4GB
#p pbepbe aug-cc-pvtz output=wfx scf=(conver=6) int=(grid=ultrafine)

title

0 1
BR -0.027650793000000 -2.585230811000000 1.737629694000000
C 0.100930819000000 -4.512779758000000 1.833361489000000
H 0.032236616000000 -4.908858092000000 0.827604994000000
H 1.054397314000000 -4.767514510000000 2.279656285000000
H -0.715829994000000 -4.877758865000000 2.443967823000000

27CH3Brben080_2.wfx

