%nprocs=4
%mem=4GB
#p pbepbe aug-cc-pvtz output=wfx scf=(conver=6) int=(grid=ultrafine)

title

0 1
BR -0.063049940000000 -5.093899761000000 1.863480773000000
C 0.065531672000000 -7.021448708000000 1.959212568000000
H -0.003162531000000 -7.417527042000000 0.953456073000000
H 1.018998167000000 -7.276183460000000 2.405507364000000
H -0.751229141000000 -7.386427815000000 2.569818902000000

27CH3Brben150_2.wfx

