%nprocs=4
%mem=4GB
#p pbepbe aug-cc-pvtz output=wfx scf=(conver=6) int=(grid=ultrafine)

title

0 1
BR -0.040332214000000 -3.483938548000000 1.782714694000000
C 0.088249398000000 -5.411487495000000 1.878446489000000
H 0.019555195000000 -5.807565829000000 0.872689994000000
H 1.041715893000000 -5.666222247000000 2.324741285000000
H -0.728511415000000 -5.776466602000000 2.489052823000000

27CH3Brben105_2.wfx

