%nprocs=4
%mem=4GB
#p pbepbe aug-cc-pvtz output=wfx scf=(conver=6) int=(grid=ultrafine)

title

0 1
I -0.213023963000000 -3.320070118000000 1.886131883000000
C 0.061497296000000 -5.423480818000000 1.875112364000000
H 0.065901516000000 -5.757188126000000 0.842189028000000
H 1.010349105000000 -5.641412493000000 2.355280312000000
H -0.760573958000000 -5.873576450000000 2.422776051000000

28CH3Iben100_2.wfx

