%nprocs=4
%mem=4GB
#p pbepbe aug-cc-pvtz output=wfx scf=(conver=6) int=(grid=ultrafine)

title

0 1
I -0.298838816000000 -2.780094088000000 1.912470188000000
C -0.024317557000000 -4.883504788000000 1.901450669000000
H -0.019913337000000 -5.217212096000000 0.868527333000000
H 0.924534252000000 -5.101436463000000 2.381618617000000
H -0.846388811000000 -5.333600420000000 2.449114356000000

28CH3Iben085_2.wfx

