%nprocs=4
%mem=4GB
#p pbepbe aug-cc-pvtz output=wfx scf=(conver=6) int=(grid=ultrafine)

title

0 1
I -0.241588680000000 -3.140331272000000 1.894898969000000
C 0.032932579000000 -5.243741972000000 1.883879450000000
H 0.037336799000000 -5.577449280000000 0.850956114000000
H 0.981784388000000 -5.461673647000000 2.364047398000000
H -0.789138675000000 -5.693837604000000 2.431543137000000

28CH3Iben095_2.wfx

