%nprocs=4
%mem=4GB
#p pbepbe aug-cc-pvtz output=wfx scf=(conver=6) int=(grid=ultrafine)

title

0 1
H 0.022106668000000 0.337720036000000 0.044305376000000
C 0.026919353000000 0.297157256000000 1.127793236000000
C 1.232420009000000 0.374285365000000 1.823206501000000
C 1.238505395000000 0.318303850000000 3.215636232000000
C 0.039447508000000 0.184540972000000 3.913255170000000
C -1.166219961000000 0.107113476000000 3.218629152000000
C -1.172980038000000 0.163913404000000 1.825514693000000
H 2.165532440000000 0.474316067000000 1.280310128000000
H 2.176629361000000 0.375131147000000 3.756175076000000
H 0.044716980000000 0.137040660000000 4.996380563000000
H -2.098861603000000 -0.000562861000000 3.760947121000000
H -2.110703107000000 0.101604635000000 1.284610113000000
I -0.241588680000000 -3.140331272000000 1.894898969000000
C 0.032932579000000 -5.243741972000000 1.883879450000000
H 0.037336799000000 -5.577449280000000 0.850956114000000
H 0.981784388000000 -5.461673647000000 2.364047398000000
H -0.789138675000000 -5.693837604000000 2.431543137000000

28CH3Iben095.wfx

