%nprocs=4
%mem=4GB
#p pbepbe aug-cc-pvtz output=wfx scf=(conver=6) int=(grid=ultrafine)

title

0 1
I -0.327519989000000 -2.599622461000000 1.921273017000000
C -0.052998730000000 -4.703033161000000 1.910253498000000
H -0.048594510000000 -5.036740469000000 0.877330162000000
H 0.895853079000000 -4.920964836000000 2.390421446000000
H -0.875069984000000 -5.153128793000000 2.457917185000000

28CH3Iben080_2.wfx

