%nprocs=4
%mem=4GB
#p pbepbe aug-cc-pvtz output=wfx scf=(conver=6) int=(grid=ultrafine)

title

0 1
H 0.002144194000000 0.361043475000000 0.029799709000000
C 0.015020592000000 0.274789738000000 1.107648016000000
C 1.227632658000000 0.296655040000000 1.794629427000000
C 1.243958826000000 0.183702791000000 3.183703934000000
C 0.047958213000000 0.048915002000000 3.886484583000000
C -1.165135654000000 0.026954348000000 3.200213281000000
C -1.181832083000000 0.139828643000000 1.810376587000000
H 2.155807907000000 0.399177037000000 1.249441585000000
H 2.184979344000000 0.198598553000000 3.716170761000000
H 0.060934662000000 -0.040672756000000 4.964014252000000
H -2.093220602000000 -0.078628959000000 3.745125056000000
H -2.122845437000000 0.123257119000000 1.277645797000000
Br 0.000945775000000 -4.961915111000000 1.970677035000000
C 0.319271615000000 -6.856903561000000 1.905609256000000
F 0.348221283000000 -7.280147422000000 0.648069648000000
F 1.481255619000000 -7.151702387000000 2.474882566000000
F -0.640715723000000 -7.511453415000000 2.546939823000000

29CF3Brben150.wfx

