%nprocs=4
%mem=4GB
#p pbepbe aug-cc-pvtz output=wfx scf=(conver=6) int=(grid=ultrafine)

title

0 1
BR -0.237064450000000 -3.399433233000000 1.991697957000000
C 0.081261390000000 -5.294421683000000 1.926630178000000
F 0.110211058000000 -5.717665544000000 0.669090570000000
F 1.243245394000000 -5.589220509000000 2.495903488000000
F -0.878725948000000 -5.948971537000000 2.567960745000000

29CF3Brben105_2.wfx

