%nprocs=4
%mem=4GB
#p pbepbe aug-cc-pvtz output=wfx scf=(conver=6) int=(grid=ultrafine)

title

0 1
BR -0.316697881000000 -2.876658248000000 1.998731134000000
C 0.001627959000000 -4.771646698000000 1.933663355000000
F 0.030577627000000 -5.194890559000000 0.676123747000000
F 1.163611963000000 -5.066445524000000 2.502936665000000
F -0.958359379000000 -5.426196552000000 2.574993922000000

29CF3Brben090_2.wfx

