%nprocs=4
%mem=4GB
#p pbepbe aug-cc-pvtz output=wfx scf=(conver=6) int=(grid=ultrafine)

title

0 1
BR -0.369945183000000 -2.527102069000000 2.003433904000000
C -0.051619343000000 -4.422090519000000 1.938366125000000
F -0.022669675000000 -4.845334380000000 0.680826517000000
F 1.110364661000000 -4.716889345000000 2.507639435000000
F -1.011606681000000 -5.076640373000000 2.579696692000000

29CF3Brben080_2.wfx

