%nprocs=4
%mem=4GB
#p pbepbe aug-cc-pvtz output=wfx scf=(conver=6) int=(grid=ultrafine)

title

0 1
BR -0.210563271000000 -3.573407323000000 1.989357388000000
C 0.107762569000000 -5.468395773000000 1.924289609000000
F 0.136712237000000 -5.891639634000000 0.666750001000000
F 1.269746573000000 -5.763194599000000 2.493562919000000
F -0.852224769000000 -6.122945627000000 2.565620176000000

29CF3Brben110_2.wfx

