%nprocs=4
%mem=4GB
#p pbepbe aug-cc-pvtz output=wfx scf=(conver=6) int=(grid=ultrafine)

title

0 1
BR -0.343302017000000 -2.702008269000000 2.001080796000000
C -0.024976177000000 -4.596996719000000 1.936013017000000
F 0.003973491000000 -5.020240580000000 0.678473409000000
F 1.137007827000000 -4.891795545000000 2.505286327000000
F -0.984963515000000 -5.251546573000000 2.577343584000000

29CF3Brben085_2.wfx

