%nprocs=4
%mem=4GB
#p pbepbe aug-cc-pvtz output=wfx scf=(conver=6) int=(grid=ultrafine)

title

0 1
BR -0.290126479000000 -3.051093335000000 1.996384364000000
C 0.028199361000000 -4.946081785000000 1.931316585000000
F 0.057149029000000 -5.369325646000000 0.673776977000000
F 1.190183365000000 -5.240880611000000 2.500589895000000
F -0.931787977000000 -5.600631639000000 2.572647152000000

29CF3Brben095_2.wfx

