%nprocs=4
%mem=4GB
#p pbepbe aug-cc-pvtz output=wfx scf=(conver=6) int=(grid=ultrafine)

title

0 1
BR 0.000945775000000 -4.961915111000000 1.970677035000000
C 0.319271615000000 -6.856903561000000 1.905609256000000
F 0.348221283000000 -7.280147422000000 0.648069648000000
F 1.481255619000000 -7.151702387000000 2.474882566000000
F -0.640715723000000 -7.511453415000000 2.546939823000000

29CF3Brben150_2.wfx

