%nprocs=4
%mem=4GB
#p pbepbe aug-cc-pvtz output=wfx scf=(conver=6) int=(grid=ultrafine)

title

0 1
BR -0.131162271000000 -4.094656459000000 1.982344739000000
C 0.187163569000000 -5.989644909000000 1.917276960000000
F 0.216113237000000 -6.412888770000000 0.659737352000000
F 1.349147573000000 -6.284443735000000 2.486550270000000
F -0.772823769000000 -6.644194763000000 2.558607527000000

29CF3Brben125_2.wfx

