%nprocs=4
%mem=4GB
#p pbepbe aug-cc-pvtz output=wfx scf=(conver=6) int=(grid=ultrafine)

title

0 1
BR 0.264992249000000 -6.695318920000000 1.947356607000000
C 0.583318089000000 -8.590307370000000 1.882288828000000
F 0.612267757000000 -9.013551230999999 0.624749220000000
F 1.745302093000000 -8.885106196000001 2.451562138000000
F -0.376669249000000 -9.244857224000000 2.523619395000000

29CF3Brben200_2.wfx

