%nprocs=4
%mem=4GB
#p pbepbe aug-cc-pvtz output=wfx scf=(conver=6) int=(grid=ultrafine)

title

0 1
I 0.002665908000000 -3.015839284000000 1.721401392000000
C 0.105418784000000 -5.133580419000000 1.843661871000000
F 0.134529115000000 -5.677284435000000 0.629013126000000
F 1.201470409000000 -5.517180315000000 2.494515844000000
F -0.950845012000000 -5.622107783000000 2.489830713000000

30CF3Iben095_2.wfx

