%nprocs=4
%mem=4GB
#p pbepbe aug-cc-pvtz output=wfx scf=(conver=6) int=(grid=ultrafine)

title

0 1
I 0.003327514000000 -3.192466337000000 1.727643305000000
C 0.106080390000000 -5.310207472000000 1.849903784000000
F 0.135190721000000 -5.853911488000000 0.635255039000000
F 1.202132015000000 -5.693807368000000 2.500757757000000
F -0.950183406000000 -5.798734836000000 2.496072626000000

30CF3Iben100_2.wfx

