%nprocs=4
%mem=4GB
#p pbepbe aug-cc-pvtz output=wfx scf=(conver=6) int=(grid=ultrafine)

title

0 1
I 0.002003416000000 -2.838976025000000 1.715151131000000
C 0.104756292000000 -4.956717160000000 1.837411610000000
F 0.133866623000000 -5.500421176000000 0.622762865000000
F 1.200807917000000 -5.340317056000000 2.488265583000000
F -0.951507504000000 -5.445244524000000 2.483580452000000

30CF3Iben090_2.wfx

