%nprocs=4
%mem=4GB
#p pbepbe aug-cc-pvtz output=wfx scf=(conver=6) int=(grid=ultrafine)

title

0 1
I 0.004650666000000 -3.545704101000000 1.740126554000000
C 0.107403542000000 -5.663445236000000 1.862387033000000
F 0.136513873000000 -6.207149252000000 0.647738288000000
F 1.203455167000000 -6.047045132000000 2.513241006000000
F -0.948860254000000 -6.151972600000000 2.508555875000000

30CF3Iben110_2.wfx

