%nprocs=4
%mem=4GB
#p pbepbe aug-cc-pvtz output=wfx scf=(conver=6) int=(grid=ultrafine)

title

0 1
I 0.016502604000000 -6.709780221000000 1.851943454000000
C 0.119255480000000 -8.827521356000000 1.974203933000000
F 0.148365811000000 -9.371225372000000 0.759555188000000
F 1.215307105000000 -9.211121252000000 2.625057906000000
F -0.937008316000000 -9.316048720000000 2.620372775000000

30CF3Iben200_2.wfx

