%nprocs=4
%mem=4GB
#p pbepbe aug-cc-pvtz output=wfx scf=(conver=6) int=(grid=ultrafine)

title

0 1
I 0.009924980000000 -4.953771877000000 1.789886979000000
C 0.112677856000000 -7.071513012000000 1.912147458000000
F 0.141788187000000 -7.615217028000000 0.697498713000000
F 1.208729481000000 -7.455112908000000 2.563001431000000
F -0.943585940000000 -7.560040376000000 2.558316300000000

30CF3Iben150_2.wfx

