%nprocs=4
%mem=4GB
#p pbepbe aug-cc-pvtz output=wfx scf=(conver=6) int=(grid=ultrafine)

title

0 1
O 3.689956756000000 0.407398960000000 -0.006583121000000
H 4.144634944000000 0.036256789000000 -0.766513318000000
H 4.144642041000000 0.035286967000000 0.752872754000000

31trifluorometOHwat200_2.wfx

