%nprocs=4
%mem=4GB
#p pbepbe aug-cc-pvtz output=wfx scf=(conver=6) int=(grid=ultrafine)

title

0 1
O 2.009153157000000 0.326436408000000 -0.005930179000000
H 2.463831345000000 -0.044705763000000 -0.765860376000000
H 2.463838442000000 -0.045675585000000 0.753525696000000

31trifluorometOHwat105_2.wfx

