%nprocs=4
%mem=4GB
#p pbepbe aug-cc-pvtz output=wfx scf=(conver=6) int=(grid=ultrafine)

title

0 1
O 2.363006546000000 0.343481156000000 -0.006067641000000
H 2.817684734000000 -0.027661015000000 -0.765997838000000
H 2.817691831000000 -0.028630837000000 0.753388234000000

31trifluorometOHwat125_2.wfx

