%nprocs=4
%mem=4GB
#p pbepbe aug-cc-pvtz output=wfx scf=(conver=6) int=(grid=ultrafine)

title

0 1
O 1.743763114000000 0.313652847000000 -0.005827083000000
H 2.198441302000000 -0.057489324000000 -0.765757280000000
H 2.198448399000000 -0.058459146000000 0.753628792000000

31trifluorometOHwat090_2.wfx

