%nprocs=4
%mem=4GB
#p pbepbe aug-cc-pvtz output=wfx scf=(conver=6) int=(grid=ultrafine)

title

0 1
O -0.822589646000000 0.130751992000000 -0.004670180000000
H 0.151322978000000 0.236946671000000 -0.005208468000000
C -1.094495060000000 -1.171586630000000 -0.000235811000000
F -2.408360005000000 -1.348046797000000 0.002362133000000
F -0.590968467000000 -1.812045684000000 -1.074390844000000
F -0.587525050000000 -1.805322781000000 1.076316471000000
O 3.689956756000000 0.407398960000000 -0.006583121000000
H 4.144634944000000 0.036256789000000 -0.766513318000000
H 4.144642041000000 0.035286967000000 0.752872754000000

31trifluorometOHwat200.wfx

