%nprocs=4
%mem=4GB
#p pbepbe aug-cc-pvtz output=wfx scf=(conver=6) int=(grid=ultrafine)

title

0 1
O 1.655226374000000 0.309388125000000 -0.005792689000000
H 2.109904562000000 -0.061754046000000 -0.765722886000000
H 2.109911659000000 -0.062723868000000 0.753663186000000

31trifluorometOHwat085_2.wfx

