%nprocs=4
%mem=4GB
#p pbepbe aug-cc-pvtz output=wfx scf=(conver=6) int=(grid=ultrafine)

title

0 1
O 1.920589925000000 0.322170410000000 -0.005895775000000
H 2.375268113000000 -0.048971761000000 -0.765825972000000
H 2.375275210000000 -0.049941583000000 0.753560100000000

31trifluorometOHwat100_2.wfx

