%nprocs=4
%mem=4GB
#p pbepbe aug-cc-pvtz output=wfx scf=(conver=6) int=(grid=ultrafine)

title

0 1
O 2.805323283000000 0.364787091000000 -0.006239467000000
H 3.260001471000000 -0.006355080000000 -0.766169664000000
H 3.260008568000000 -0.007324902000000 0.753216408000000

31trifluorometOHwat150_2.wfx

