%nprocs=4
%mem=4GB
#p pbepbe aug-cc-pvtz output=wfx scf=(conver=6) int=(grid=ultrafine)

title

0 1
O -0.822589646000000 0.130751992000000 -0.004670180000000
H 0.151322978000000 0.236946671000000 -0.005208468000000
C -1.094495060000000 -1.171586630000000 -0.000235811000000
F -2.408360005000000 -1.348046797000000 0.002362133000000
F -0.590968467000000 -1.812045684000000 -1.074390844000000
F -0.587525050000000 -1.805322781000000 1.076316471000000
O 1.743763114000000 0.313652847000000 -0.005827083000000
H 2.198441302000000 -0.057489324000000 -0.765757280000000
H 2.198448399000000 -0.058459146000000 0.753628792000000

31trifluorometOHwat090.wfx

