%nprocs=4
%mem=4GB
#p pbepbe aug-cc-pvtz output=wfx scf=(conver=6) int=(grid=ultrafine)

title

0 1
O 2.097616504000000 0.330697595000000 -0.005964545000000
H 2.552294692000000 -0.040444576000000 -0.765894742000000
H 2.552301789000000 -0.041414398000000 0.753491330000000

31trifluorometOHwat110_2.wfx

