%nprocs=4
%mem=4GB
#p pbepbe aug-cc-pvtz output=wfx scf=(conver=6) int=(grid=ultrafine)

title

0 1
O 1.849312051000000 0.373614144000000 -0.007116742000000
H 2.219558679000000 -0.086437858000000 -0.765362348000000
H 2.220565366000000 -0.083257667000000 0.752600584000000

32trichlorometOHwat095_2.wfx

