%nprocs=4
%mem=4GB
#p pbepbe aug-cc-pvtz output=wfx scf=(conver=6) int=(grid=ultrafine)

title

0 1
O -0.778073626000000 0.205937567000000 -0.003744167000000
H 0.204621770000000 0.306150037000000 -0.005250247000000
C -1.064673043000000 -1.099865265000000 -0.000037626000000
CL -2.818149715000000 -1.288073131000000 0.002340120000000
CL -0.388554792000000 -1.946140752000000 -1.447422763000000
CL -0.385461107000000 -1.938612521000000 1.450299192000000

32trichlorometOHwat200_1.wfx

