%nprocs=4
%mem=4GB
#p pbepbe aug-cc-pvtz output=wfx scf=(conver=6) int=(grid=ultrafine)

title

0 1
O 2.296676901000000 0.391964754000000 -0.007624439000000
H 2.666923529000000 -0.068087248000000 -0.765870045000000
H 2.667930216000000 -0.064907057000000 0.752092887000000

32trichlorometOHwat110_2.wfx

