%nprocs=4
%mem=4GB
#p pbepbe aug-cc-pvtz output=wfx scf=(conver=6) int=(grid=ultrafine)

title

0 1
O 2.801443315000000 0.412669938000000 -0.008197278000000
H 3.171689943000000 -0.047382064000000 -0.766442884000000
H 3.172696630000000 -0.044201873000000 0.751520048000000

32trichlorometOHwat150_2.wfx

