%nprocs=4
%mem=4GB
#p pbepbe aug-cc-pvtz output=wfx scf=(conver=6) int=(grid=ultrafine)

title

0 1
O -0.451980816000000 0.000313290000000 4.679610939000000
H -1.295714376000000 0.000127849000000 5.135579764000000
C 0.597250105000000 0.000186554000000 5.643338148000000
H 1.528640098000000 0.000227571000000 5.087612874000000
H 0.564780479000000 0.889336543000000 6.271163099000000
H 0.564749889000000 -0.889093311000000 6.270977419000000

33HFmethanol200_2.wfx

