%nprocs=4
%mem=4GB
#p pbepbe aug-cc-pvtz output=wfx scf=(conver=6) int=(grid=ultrafine)

title

0 1
F 0.324738231000000 -0.000096172000000 0.367513243000000
H 0.106356599000000 -0.000015606000000 1.274535595000000
O -0.158862168000000 0.000140624000000 2.891998192000000
H -1.002595728000000 -0.000044817000000 3.347967017000000
C 0.890368753000000 0.000013888000000 3.855725401000000
H 1.821758746000000 0.000054905000000 3.300000127000000
H 0.857899127000000 0.889163877000000 4.483550352000000
H 0.857868537000000 -0.889265977000000 4.483364672000000

33HFmethanol095.wfx

