%nprocs=4
%mem=4GB
#p pbepbe aug-cc-pvtz output=wfx scf=(conver=6) int=(grid=ultrafine)

title

0 1
F 0.324738231000000 -0.000096172000000 0.367513243000000
H 0.106356599000000 -0.000015606000000 1.274535595000000
O -0.312400508000000 0.000231068000000 3.828366774000000
H -1.156134068000000 0.000045627000000 4.284335599000000
C 0.736830413000000 0.000104332000000 4.792093983000000
H 1.668220406000000 0.000145349000000 4.236368709000000
H 0.704360787000000 0.889254321000000 5.419918934000000
H 0.704330197000000 -0.889175533000000 5.419733254000000

33HFmethanol150.wfx

