%nprocs=4
%mem=4GB
#p pbepbe aug-cc-pvtz output=wfx scf=(conver=6) int=(grid=ultrafine)

title

0 1
O -0.130946107000000 0.000124180000000 2.721749359000000
H -0.974679667000000 -0.000061261000000 3.177718184000000
C 0.918284814000000 -0.000002556000000 3.685476568000000
H 1.849674807000000 0.000038461000000 3.129751294000000
H 0.885815188000000 0.889147433000000 4.313301519000000
H 0.885784598000000 -0.889282421000000 4.313115839000000

33HFmethanol085_2.wfx

