%nprocs=4
%mem=4GB
#p pbepbe aug-cc-pvtz output=wfx scf=(conver=6) int=(grid=ultrafine)

title

0 1
O -0.144904137000000 0.000132402000000 2.806873775000000
H -0.988637697000000 -0.000053039000000 3.262842600000000
C 0.904326784000000 0.000005666000000 3.770600984000000
H 1.835716777000000 0.000046683000000 3.214875710000000
H 0.871857158000000 0.889155655000000 4.398425935000000
H 0.871826568000000 -0.889274199000000 4.398240255000000

33HFmethanol090_2.wfx

