%nprocs=4
%mem=4GB
#p pbepbe aug-cc-pvtz output=wfx scf=(conver=6) int=(grid=ultrafine)

title

0 1
O -0.116988076000000 0.000115958000000 2.636624942000000
H -0.960721636000000 -0.000069483000000 3.092593767000000
C 0.932242845000000 -0.000010778000000 3.600352151000000
H 1.863632838000000 0.000030239000000 3.044626877000000
H 0.899773219000000 0.889139211000000 4.228177102000000
H 0.899742629000000 -0.889290643000000 4.227991422000000

33HFmethanol080_2.wfx

