%nprocs=4
%mem=4GB
#p pbepbe aug-cc-pvtz output=wfx scf=(conver=6) int=(grid=ultrafine)

title

0 1
O -0.242610353000000 0.000189957000000 3.402744691000000
H -1.086343913000000 0.000004516000000 3.858713516000000
C 0.806620568000000 0.000063221000000 4.366471900000000
H 1.738010561000000 0.000104238000000 3.810746626000000
H 0.774150942000000 0.889213210000000 4.994296851000000
H 0.774120352000000 -0.889216644000000 4.994111171000000

33HFmethanol125_2.wfx

