%nprocs=4
%mem=4GB
#p pbepbe aug-cc-pvtz output=wfx scf=(conver=6) int=(grid=ultrafine)

title

0 1
F 0.324738231000000 -0.000096172000000 0.367513243000000
H 0.106356599000000 -0.000015606000000 1.274535595000000
O -0.186778230000000 0.000157069000000 3.062247025000000
H -1.030511790000000 -0.000028372000000 3.518215850000000
C 0.862452691000000 0.000030333000000 4.025974234000000
H 1.793842684000000 0.000071350000000 3.470248960000000
H 0.829983065000000 0.889180322000000 4.653799185000000
H 0.829952475000000 -0.889249532000000 4.653613505000000

33HFmethanol105.wfx

