%nprocs=4
%mem=4GB
#p pbepbe aug-cc-pvtz output=wfx scf=(conver=6) int=(grid=ultrafine)

title

0 1
Cl 0.377733920000000 -0.000000483000000 0.006430557000000
H 0.049409273000000 -0.000001882000000 1.255616511000000
O -0.493929995000000 0.000016102000000 4.910625350000000
H -1.306143442000000 0.000003634000000 5.421843334000000
C 0.610850861000000 0.000010111000000 5.809376559000000
H 1.507482009000000 0.000008593000000 5.198211431000000
H 0.619210401000000 0.888990436000000 6.439015891000000
H 0.619206057000000 -0.888972558000000 6.439012624000000

34HClmethanol200.wfx

