%nprocs=4
%mem=4GB
#p pbepbe aug-cc-pvtz output=wfx scf=(conver=6) int=(grid=ultrafine)

title

0 1
Cl 0.377733920000000 -0.000000483000000 0.006430557000000
H 0.049409273000000 -0.000001882000000 1.255616511000000
O -0.249433941000000 0.000008010000000 3.265915883000000
H -1.061647388000000 -0.000004458000000 3.777133867000000
C 0.855346915000000 0.000002019000000 4.164667092000000
H 1.751978063000000 0.000000501000000 3.553501964000000
H 0.863706455000000 0.888982344000000 4.794306424000000
H 0.863702111000000 -0.888980650000000 4.794303157000000

34HClmethanol110.wfx

