%nprocs=4
%mem=4GB
#p pbepbe aug-cc-pvtz output=wfx scf=(conver=6) int=(grid=ultrafine)

title

0 1
O -0.167935257000000 0.000005312000000 2.717679394000000
H -0.980148704000000 -0.000007156000000 3.228897378000000
C 0.936845599000000 -0.000000679000000 3.616430603000000
H 1.833476747000000 -0.000002197000000 3.005265475000000
H 0.945205139000000 0.888979646000000 4.246069935000000
H 0.945200795000000 -0.888983348000000 4.246066668000000

34HClmethanol080_2.wfx

