%nprocs=4
%mem=4GB
#p pbepbe aug-cc-pvtz output=wfx scf=(conver=6) int=(grid=ultrafine)

title

0 1
Cl 0.377733920000000 -0.000000483000000 0.006430557000000
H 0.049409273000000 -0.000001882000000 1.255616511000000
O -0.181518371000000 0.000005762000000 2.809052143000000
H -0.993731818000000 -0.000006706000000 3.320270127000000
C 0.923262485000000 -0.000000229000000 3.707803352000000
H 1.819893633000000 -0.000001747000000 3.096638224000000
H 0.931622025000000 0.888980096000000 4.337442684000000
H 0.931617681000000 -0.888982898000000 4.337439417000000

34HClmethanol085.wfx

