%nprocs=4
%mem=4GB
#p pbepbe aug-cc-pvtz output=wfx scf=(conver=6) int=(grid=ultrafine)

title

0 1
Cl 0.377733920000000 -0.000000483000000 0.006430557000000
H 0.049409273000000 -0.000001882000000 1.255616511000000
O -0.358098854000000 0.000011606000000 3.996897869000000
H -1.170312301000000 -0.000000862000000 4.508115853000000
C 0.746682002000000 0.000005615000000 4.895649078000000
H 1.643313150000000 0.000004097000000 4.284483950000000
H 0.755041542000000 0.888985940000000 5.525288410000000
H 0.755037198000000 -0.888977054000000 5.525285143000000

34HClmethanol150.wfx

