%nprocs=4
%mem=4GB
#p pbepbe aug-cc-pvtz output=wfx scf=(conver=6) int=(grid=ultrafine)

title

0 1
O -0.241768568000000 0.000171918000000 3.036733629000000
H -1.033429203000000 -0.000051227000000 3.579601330000000
C 0.895778750000000 0.000014689000000 3.893068629000000
H 1.769090724000000 0.000087615000000 3.248602643000000
H 0.928801071000000 0.888904482000000 4.522289004000000
H 0.928760848000000 -0.889057036000000 4.522032876000000

35HBrmethanol095_2.wfx

