%nprocs=4
%mem=4GB
#p pbepbe aug-cc-pvtz output=wfx scf=(conver=6) int=(grid=ultrafine)

title

0 1
O -0.282742967000000 0.000201242000000 3.317260049000000
H -1.074403602000000 -0.000021903000000 3.860127750000000
C 0.854804351000000 0.000044013000000 4.173595049000000
H 1.728116325000000 0.000116939000000 3.529129063000000
H 0.887826672000000 0.888933806000000 4.802815424000000
H 0.887786449000000 -0.889027712000000 4.802559296000000

35HBrmethanol110_2.wfx

