%nprocs=4
%mem=4GB
#p pbepbe aug-cc-pvtz output=wfx scf=(conver=6) int=(grid=ultrafine)

title

0 1
O -0.269084834000000 0.000191467000000 3.223751243000000
H -1.060745469000000 -0.000031678000000 3.766618944000000
C 0.868462484000000 0.000034238000000 4.080086243000000
H 1.741774458000000 0.000107164000000 3.435620257000000
H 0.901484805000000 0.888924031000000 4.709306618000000
H 0.901444582000000 -0.889037487000000 4.709050490000000

35HBrmethanol105_2.wfx

