%nprocs=4
%mem=4GB
#p pbepbe aug-cc-pvtz output=wfx scf=(conver=6) int=(grid=ultrafine)

title

0 1
Br 0.430759046000000 -0.000115215000000 -0.107945607000000
H 0.017750410000000 -0.000013811000000 1.259967353000000
O -0.528589313000000 0.000377185000000 5.000418257000000
H -1.320249948000000 0.000154040000000 5.543285958000000
C 0.608958005000000 0.000219956000000 5.856753257000000
H 1.482269979000000 0.000292882000000 5.212287271000000
H 0.641980326000000 0.889109749000000 6.485973632000000
H 0.641940103000000 -0.888851769000000 6.485717504000000

35HBrmethanol200.wfx

