%nprocs=4
%mem=4GB
#p pbepbe aug-cc-pvtz output=wfx scf=(conver=6) int=(grid=ultrafine)

title

0 1
Br 0.430759046000000 -0.000115215000000 -0.107945607000000
H 0.017750410000000 -0.000013811000000 1.259967353000000
O -0.200794169000000 0.000142594000000 2.756207209000000
H -0.992454804000000 -0.000080551000000 3.299074910000000
C 0.936753149000000 -0.000014635000000 3.612542209000000
H 1.810065123000000 0.000058291000000 2.968076223000000
H 0.969775470000000 0.888875158000000 4.241762584000000
H 0.969735247000000 -0.889086360000000 4.241506456000000

35HBrmethanol080.wfx

