%nprocs=4
%mem=4GB
#p pbepbe aug-cc-pvtz output=wfx scf=(conver=6) int=(grid=ultrafine)

title

0 1
Br 0.430759046000000 -0.000115215000000 -0.107945607000000
H 0.017750410000000 -0.000013811000000 1.259967353000000
O -0.228110435000000 0.000162143000000 2.943224823000000
H -1.019771070000000 -0.000061002000000 3.486092524000000
C 0.909436883000000 0.000004914000000 3.799559823000000
H 1.782748857000000 0.000077840000000 3.155093837000000
H 0.942459204000000 0.888894707000000 4.428780198000000
H 0.942418981000000 -0.889066811000000 4.428524070000000

35HBrmethanol090.wfx

