%nprocs=4
%mem=4GB
#p pbepbe aug-cc-pvtz output=wfx scf=(conver=6) int=(grid=ultrafine)

title

0 1
O -0.255412248000000 0.000181682000000 3.130143486000000
H -1.047072883000000 -0.000041463000000 3.673011187000000
C 0.882135070000000 0.000024453000000 3.986478486000000
H 1.755447044000000 0.000097379000000 3.342012500000000
H 0.915157391000000 0.888914246000000 4.615698861000000
H 0.915117168000000 -0.889047272000000 4.615442733000000

35HBrmethanol100_2.wfx

