%nprocs=4
%mem=4GB
#p pbepbe aug-cc-pvtz output=wfx scf=(conver=6) int=(grid=ultrafine)

title

0 1
O -0.392008030000000 0.000279439000000 4.065330503000000
H -1.183668665000000 0.000056294000000 4.608198204000000
C 0.745539288000000 0.000122210000000 4.921665503000000
H 1.618851262000000 0.000195136000000 4.277199517000000
H 0.778561609000000 0.889012003000000 5.550885878000000
H 0.778521386000000 -0.888949515000000 5.550629750000000

35HBrmethanol150_2.wfx

