%nprocs=4
%mem=4GB
#p pbepbe aug-cc-pvtz output=wfx scf=(conver=6) int=(grid=ultrafine)

title

0 1
O -0.299845151000000 -0.000206592000000 3.210183180000000
H -1.057490585000000 0.000037443000000 3.799838164000000
C 0.881786291000000 -0.000026326000000 4.003139037000000
H 1.719796684000000 -0.000127739000000 3.312925038000000
H 0.951022235000000 0.888896743000000 4.629904896000000
H 0.951069216000000 -0.888720081000000 4.630225109000000

36HImethanol100_2.wfx

