%nprocs=4
%mem=4GB
#p pbepbe aug-cc-pvtz output=wfx scf=(conver=6) int=(grid=ultrafine)

title

0 1
O -0.272556125000000 -0.000184961000000 3.012041899000000
H -1.030201559000000 0.000059074000000 3.601696883000000
C 0.909075317000000 -0.000004695000000 3.804997756000000
H 1.747085710000000 -0.000106108000000 3.114783757000000
H 0.978311261000000 0.888918374000000 4.431763615000000
H 0.978358242000000 -0.888698450000000 4.432083828000000

36HImethanol090_2.wfx

