%nprocs=4
%mem=4GB
#p pbepbe aug-cc-pvtz output=wfx scf=(conver=6) int=(grid=ultrafine)

title

0 1
I 0.494360760000000 0.000136728000000 -0.299186147000000
H -0.026818451000000 0.000009824000000 1.227779722000000
O -0.258900789000000 -0.000174137000000 2.912892677000000
H -1.016546223000000 0.000069898000000 3.502547661000000
C 0.922730653000000 0.000006129000000 3.705848534000000
H 1.760741046000000 -0.000095284000000 3.015634535000000
H 0.991966597000000 0.888929198000000 4.332614393000000
H 0.992013578000000 -0.888687626000000 4.332934606000000

36HImethanol085.wfx

