%nprocs=4
%mem=4GB
#p pbepbe aug-cc-pvtz output=wfx scf=(conver=6) int=(grid=ultrafine)

title

0 1
O -0.327161465000000 -0.000228244000000 3.408522591000000
H -1.084806899000000 0.000015791000000 3.998177575000000
C 0.854469977000000 -0.000047978000000 4.201478448000000
H 1.692480370000000 -0.000149391000000 3.511264449000000
H 0.923705921000000 0.888875091000000 4.828244307000000
H 0.923752902000000 -0.888741733000000 4.828564520000000

36HImethanol110_2.wfx

