%nprocs=4
%mem=4GB
#p pbepbe aug-cc-pvtz output=wfx scf=(conver=6) int=(grid=ultrafine)

title

0 1
O -0.313510130000000 -0.000217424000000 3.309402418000000
H -1.071155564000000 0.000026611000000 3.899057402000000
C 0.868121312000000 -0.000037158000000 4.102358275000000
H 1.706131705000000 -0.000138571000000 3.412144276000000
H 0.937357256000000 0.888885911000000 4.729124134000000
H 0.937404237000000 -0.888730913000000 4.729444347000000

36HImethanol105_2.wfx

