%nprocs=4
%mem=4GB
#p pbepbe aug-cc-pvtz output=wfx scf=(conver=6) int=(grid=ultrafine)

title

0 1
I 0.494360760000000 0.000136728000000 -0.299186147000000
H -0.026818451000000 0.000009824000000 1.227779722000000
O -0.245253455000000 -0.000163320000000 2.813801553000000
H -1.002898889000000 0.000080715000000 3.403456537000000
C 0.936377987000000 0.000016946000000 3.606757410000000
H 1.774388380000000 -0.000084467000000 2.916543411000000
H 1.005613931000000 0.888940015000000 4.233523269000000
H 1.005660912000000 -0.888676809000000 4.233843482000000

36HImethanol080.wfx

