%nprocs=4
%mem=4GB
#p pbepbe aug-cc-pvtz output=wfx scf=(conver=6) int=(grid=ultrafine)

title

0 1
F -0.071729041000000 -0.108855435000000 0.260652232000000
H -0.003218488000000 -0.010570213000000 1.202783243000000
N 0.044899725000000 0.040076644000000 2.658320207000000
H 0.999714193000000 0.072677686000000 2.990800649000000
C -0.630928276000000 -1.153722843000000 3.182656017000000
H -1.653795568000000 -1.167626355000000 2.817142057000000
H -0.131918304000000 -2.038125075000000 2.796835555000000
H -0.648928339000000 -1.210586195000000 4.271480013000000
H -0.404200857000000 0.875672642000000 3.009463355000000

37HFmethylamine085.wfx

