%nprocs=4
%mem=4GB
#p pbepbe aug-cc-pvtz output=wfx scf=(conver=6) int=(grid=ultrafine)

title

0 1
F -0.071729041000000 -0.108855435000000 0.260652232000000
H -0.003218488000000 -0.010570213000000 1.202783243000000
N 0.042069436000000 0.037097622000000 2.572706262000000
H 0.996883904000000 0.069698664000000 2.905186704000000
C -0.633758565000000 -1.156701865000000 3.097042072000000
H -1.656625857000000 -1.170605377000000 2.731528112000000
H -0.134748593000000 -2.041104097000000 2.711221610000000
H -0.651758628000000 -1.213565217000000 4.185866068000000
H -0.407031146000000 0.872693620000000 2.923849410000000

37HFmethylamine080.wfx

