%nprocs=4
%mem=4GB
#p pbepbe aug-cc-pvtz output=wfx scf=(conver=6) int=(grid=ultrafine)

title

0 1
F -0.071729041000000 -0.108855435000000 0.260652232000000
H -0.003218488000000 -0.010570213000000 1.202783243000000
N 0.081693481000000 0.078803936000000 3.771301504000000
H 1.036507949000000 0.111404978000000 4.103781946000000
C -0.594134520000000 -1.114995551000000 4.295637314000000
H -1.617001812000000 -1.128899063000000 3.930123354000000
H -0.095124548000000 -1.999397783000000 3.909816852000000
H -0.612134583000000 -1.171858903000000 5.384461310000000
H -0.367407101000000 0.914399934000000 4.122444652000000

37HFmethylamine150.wfx

