%nprocs=4
%mem=4GB
#p pbepbe aug-cc-pvtz output=wfx scf=(conver=6) int=(grid=ultrafine)

title

0 1
N 0.056220881000000 0.051992734000000 3.000775991000000
H 1.011035349000000 0.084593776000000 3.333256433000000
C -0.619607120000000 -1.141806753000000 3.525111801000000
H -0.392879701000000 0.887588732000000 3.351919139000000
H -1.642474412000000 -1.155710265000000 3.159597841000000
H -0.120597148000000 -2.026208985000000 3.139291339000000
H -0.637607183000000 -1.198670105000000 4.613935797000000

37HFmethylamine105_2.wfx

