%nprocs=4
%mem=4GB
#p pbepbe aug-cc-pvtz output=wfx scf=(conver=6) int=(grid=ultrafine)

title

0 1
N 0.067542037000000 0.063908824000000 3.343231774000000
H 1.022356505000000 0.096509866000000 3.675712216000000
C -0.608285964000000 -1.129890663000000 3.867567584000000
H -0.381558545000000 0.899504822000000 3.694374922000000
H -1.631153256000000 -1.143794175000000 3.502053624000000
H -0.109275992000000 -2.014292895000000 3.481747122000000
H -0.626286027000000 -1.186754015000000 4.956391580000000

37HFmethylamine125_2.wfx

