%nprocs=4
%mem=4GB
#p pbepbe aug-cc-pvtz output=wfx scf=(conver=6) int=(grid=ultrafine)

title

0 1
N 0.093570448000000 0.099838374000000 3.820683566000000
H 1.045239934000000 0.121286729000000 4.163439482000000
C -0.593601358000000 -1.112478093000000 4.281212337000000
H -0.364066738000000 0.926891536000000 4.181475374000000
H -1.607334119000000 -1.109875804000000 3.890184443000000
H -0.085095052000000 -1.980334215000000 3.870342041000000
H -0.635616517000000 -1.210665080000000 5.366014529000000

38HClmethylamine150_2.wfx

