%nprocs=4
%mem=4GB
#p pbepbe aug-cc-pvtz output=wfx scf=(conver=6) int=(grid=ultrafine)

title

0 1
N 0.065554814000000 0.069266118000000 2.981995067000000
H 1.017224300000000 0.090714473000000 3.324750983000000
C -0.621616992000000 -1.143050349000000 3.442523838000000
H -0.392082372000000 0.896319280000000 3.342786875000000
H -1.635349753000000 -1.140448060000000 3.051495944000000
H -0.113110686000000 -2.010906471000000 3.031653542000000
H -0.663632151000000 -1.241237336000000 4.527326030000000

38HClmethylamine100_2.wfx

