%nprocs=4
%mem=4GB
#p pbepbe aug-cc-pvtz output=wfx scf=(conver=6) int=(grid=ultrafine)

title

0 1
Cl -0.107209379000000 -0.167310542000000 -0.020023104000000
H 0.009530218000000 0.008128887000000 1.304817825000000
N 0.121582746000000 0.130406990000000 4.659272187000000
H 1.073252232000000 0.151855345000000 5.002028103000000
C -0.565589060000000 -1.081909477000000 5.119800958000000
H -1.579321821000000 -1.079307188000000 4.728773064000000
H -0.057082754000000 -1.949765599000000 4.708930662000000
H -0.607604219000000 -1.180096464000000 6.204603150000000
H -0.336054440000000 0.957460152000000 5.020063995000000

38HClmethylamine200.wfx

