%nprocs=4
%mem=4GB
#p pbepbe aug-cc-pvtz output=wfx scf=(conver=6) int=(grid=ultrafine)

title

0 1
N 0.071160610000000 0.075383482000000 3.149812669000000
H 1.022830096000000 0.096831837000000 3.492568585000000
C -0.616011196000000 -1.136932985000000 3.610341440000000
H -0.386476576000000 0.902436644000000 3.510604477000000
H -1.629743957000000 -1.134330696000000 3.219313546000000
H -0.107504890000000 -2.004789107000000 3.199471144000000
H -0.658026355000000 -1.235119972000000 4.695143632000000

38HClmethylamine110_2.wfx

