%nprocs=4
%mem=4GB
#p pbepbe aug-cc-pvtz output=wfx scf=(conver=6) int=(grid=ultrafine)

title

0 1
Cl -0.107209379000000 -0.167310542000000 -0.020023104000000
H 0.009530218000000 0.008128887000000 1.304817825000000
N 0.057154461000000 0.060099174000000 2.730518359000000
H 1.008823947000000 0.081547529000000 3.073274275000000
C -0.630017345000000 -1.152217293000000 3.191047130000000
H -1.643750106000000 -1.149615004000000 2.800019236000000
H -0.121511039000000 -2.020073415000000 2.780176834000000
H -0.672032504000000 -1.250404280000000 4.275849322000000
H -0.400482725000000 0.887152336000000 3.091310167000000

38HClmethylamine085.wfx

