%nprocs=4
%mem=4GB
#p pbepbe aug-cc-pvtz output=wfx scf=(conver=6) int=(grid=ultrafine)

title

0 1
N 0.068359380000000 0.072326620000000 3.065953807000000
H 1.020028866000000 0.093774975000000 3.408709723000000
C -0.618812426000000 -1.139989847000000 3.526482578000000
H -0.389277806000000 0.899379782000000 3.426745615000000
H -1.632545187000000 -1.137387558000000 3.135454684000000
H -0.110306120000000 -2.007845969000000 3.115612282000000
H -0.660827585000000 -1.238176834000000 4.611284770000000

38HClmethylamine105_2.wfx

