%nprocs=4
%mem=4GB
#p pbepbe aug-cc-pvtz output=wfx scf=(conver=6) int=(grid=ultrafine)

title

0 1
F 1.148375895000000 0.000005224000000 -2.725695422000000
C -0.162118592000000 -0.000000428000000 -3.189535008000000
H -0.144409840000000 -0.000000784000000 -4.275097289000000
H -0.663579325000000 -0.888579046000000 -2.818856229000000
H -0.663586378000000 0.888574363000000 -2.818856654000000

39methanolfluoromethane105_2.wfx

