%nprocs=4
%mem=4GB
#p pbepbe aug-cc-pvtz output=wfx scf=(conver=6) int=(grid=ultrafine)

title

0 1
F 1.134400827000000 0.000004588000000 -2.623843489000000
C -0.176093660000000 -0.000001064000000 -3.087683075000000
H -0.158384908000000 -0.000001420000000 -4.173245356000000
H -0.677554393000000 -0.888579682000000 -2.717004296000000
H -0.677561446000000 0.888573727000000 -2.717004721000000

39methanolfluoromethane100_2.wfx

