%nprocs=4
%mem=4GB
#p pbepbe aug-cc-pvtz output=wfx scf=(conver=6) int=(grid=ultrafine)

title

0 1
F 1.274029167000000 0.000010942000000 -3.641471175000000
C -0.036465320000000 0.000005290000000 -4.105310761000000
H -0.018756568000000 0.000004934000000 -5.190873042000000
H -0.537926053000000 -0.888573328000000 -3.734631982000000
H -0.537933106000000 0.888580081000000 -3.734632407000000

39methanolfluoromethane150_2.wfx

