%nprocs=4
%mem=4GB
#p pbepbe aug-cc-pvtz output=wfx scf=(conver=6) int=(grid=ultrafine)

title

0 1
F 1.413643913000000 0.000017296000000 -4.658999789000000
C 0.103149426000000 0.000011644000000 -5.122839375000000
H 0.120858178000000 0.000011288000000 -6.208401656000000
H -0.398311307000000 -0.888566974000000 -4.752160596000000
H -0.398318360000000 0.888586435000000 -4.752161021000000

39methanolfluoromethane200_2.wfx

