%nprocs=4
%mem=4GB
#p pbepbe aug-cc-pvtz output=wfx scf=(conver=6) int=(grid=ultrafine)

title

0 1
H 0.855171335000000 -0.000008119000000 -0.588786261000000
O 0.271546070000000 0.000016357000000 0.175592508000000
C 1.084050448000000 0.000001807000000 1.335251990000000
H 0.417831608000000 -0.000002486000000 2.192984764000000
H 1.718489566000000 -0.886312946000000 1.398035525000000
H 1.718498554000000 0.886309236000000 1.398050411000000
F 1.162337370000000 0.000005859000000 -2.827448284000000
C -0.148157117000000 0.000000207000000 -3.291287870000000
H -0.130448365000000 -0.000000149000000 -4.376850151000000
H -0.649617850000000 -0.888578411000000 -2.920609091000000
H -0.649624903000000 0.888574998000000 -2.920609516000000

39methanolfluoromethane110.wfx

