%nprocs=4
%mem=4GB
#p pbepbe aug-cc-pvtz output=wfx scf=(conver=6) int=(grid=ultrafine)

title

0 1
F 1.078568522000000 0.000002047000000 -2.216931115000000
C -0.231925965000000 -0.000003605000000 -2.680770701000000
H -0.214217213000000 -0.000003961000000 -3.766332982000000
H -0.733386698000000 -0.888582223000000 -2.310091922000000
H -0.733393751000000 0.888571186000000 -2.310092347000000

39methanolfluoromethane080_2.wfx

