%nprocs=4
%mem=4GB
#p pbepbe aug-cc-pvtz output=wfx scf=(conver=6) int=(grid=ultrafine)

title

0 1
F 1.162337370000000 0.000005859000000 -2.827448284000000
C -0.148157117000000 0.000000207000000 -3.291287870000000
H -0.130448365000000 -0.000000149000000 -4.376850151000000
H -0.649617850000000 -0.888578411000000 -2.920609091000000
H -0.649624903000000 0.888574998000000 -2.920609516000000

39methanolfluoromethane110_2.wfx

