%nprocs=4
%mem=4GB
#p pbepbe aug-cc-pvtz output=wfx scf=(conver=6) int=(grid=ultrafine)

title

0 1
F 1.106491471000000 0.000003318000000 -2.420436838000000
C -0.204003016000000 -0.000002334000000 -2.884276424000000
H -0.186294264000000 -0.000002690000000 -3.969838705000000
H -0.705463749000000 -0.888580952000000 -2.513597645000000
H -0.705470802000000 0.888572457000000 -2.513598070000000

39methanolfluoromethane090_2.wfx

