%nprocs=4
%mem=4GB
#p pbepbe aug-cc-pvtz output=wfx scf=(conver=6) int=(grid=ultrafine)

title

0 1
H 0.855171335000000 -0.000008119000000 -0.588786261000000
O 0.271546070000000 0.000016357000000 0.175592508000000
C 1.084050448000000 0.000001807000000 1.335251990000000
H 0.417831608000000 -0.000002486000000 2.192984764000000
H 1.718489566000000 -0.886312946000000 1.398035525000000
H 1.718498554000000 0.886309236000000 1.398050411000000
F 1.204221794000000 0.000007765000000 -3.132706868000000
C -0.106272693000000 0.000002113000000 -3.596546454000000
H -0.088563941000000 0.000001757000000 -4.682108735000000
H -0.607733426000000 -0.888576505000000 -3.225867675000000
H -0.607740479000000 0.888576904000000 -3.225868100000000

39methanolfluoromethane125.wfx

