%nprocs=4
%mem=4GB
#p pbepbe aug-cc-pvtz output=wfx scf=(conver=6) int=(grid=ultrafine)

title

0 1
F 1.204221794000000 0.000007765000000 -3.132706868000000
C -0.106272693000000 0.000002113000000 -3.596546454000000
H -0.088563941000000 0.000001757000000 -4.682108735000000
H -0.607733426000000 -0.888576505000000 -3.225867675000000
H -0.607740479000000 0.888576904000000 -3.225868100000000

39methanolfluoromethane125_2.wfx

