%nprocs=4
%mem=4GB
#p pbepbe aug-cc-pvtz output=wfx scf=(conver=6) int=(grid=ultrafine)

title

0 1
H 0.855171335000000 -0.000008119000000 -0.588786261000000
O 0.271546070000000 0.000016357000000 0.175592508000000
C 1.084050448000000 0.000001807000000 1.335251990000000
H 0.417831608000000 -0.000002486000000 2.192984764000000
H 1.718489566000000 -0.886312946000000 1.398035525000000
H 1.718498554000000 0.886309236000000 1.398050411000000
F 1.120452946000000 0.000003953000000 -2.522189699000000
C -0.190041541000000 -0.000001699000000 -2.986029285000000
H -0.172332789000000 -0.000002055000000 -4.071591566000000
H -0.691502274000000 -0.888580317000000 -2.615350506000000
H -0.691509327000000 0.888573092000000 -2.615350931000000

39methanolfluoromethane095.wfx

