%nprocs=4
%mem=4GB
#p pbepbe aug-cc-pvtz output=wfx scf=(conver=6) int=(grid=ultrafine)

title

0 1
H 0.855171335000000 -0.000008119000000 -0.588786261000000
O 0.271546070000000 0.000016357000000 0.175592508000000
C 1.084050448000000 0.000001807000000 1.335251990000000
H 0.417831608000000 -0.000002486000000 2.192984764000000
H 1.718489566000000 -0.886312946000000 1.398035525000000
H 1.718498554000000 0.886309236000000 1.398050411000000
F 1.092529997000000 0.000002683000000 -2.318683977000000
C -0.217964490000000 -0.000002969000000 -2.782523563000000
H -0.200255738000000 -0.000003325000000 -3.868085844000000
H -0.719425223000000 -0.888581587000000 -2.411844784000000
H -0.719432276000000 0.888571822000000 -2.411845209000000

39methanolfluoromethane085.wfx

