%nprocs=4
%mem=4GB
#p pbepbe aug-cc-pvtz output=wfx scf=(conver=6) int=(grid=ultrafine)

title

0 1
H 1.101371146000000 -0.000117739000000 -0.587770996000000
O 0.397090227000000 -0.000027546000000 0.067866526000000
C 1.005829292000000 0.000013334000000 1.347930653000000
H 0.205003605000000 -0.000000430000000 2.081297025000000
H 1.620180682000000 -0.886685805000000 1.514496095000000
H 1.620127834000000 0.886756142000000 1.514470494000000
Cl 1.587186038000000 0.000013932000000 -3.308613753000000
C -0.197912846000000 0.000025934000000 -3.319696688000000
H -0.527713046000000 0.000032342000000 -4.351325707000000
H -0.539936939000000 -0.887041846000000 -2.801754682000000
H -0.539927144000000 0.887091553000000 -2.801745142000000

40methanolchloromethane110.wfx

