%nprocs=4
%mem=4GB
#p pbepbe aug-cc-pvtz output=wfx scf=(conver=6) int=(grid=ultrafine)

title

0 1
CL 1.587186038000000 0.000013932000000 -3.308613753000000
C -0.197912846000000 0.000025934000000 -3.319696688000000
H -0.527713046000000 0.000032342000000 -4.351325707000000
H -0.539936939000000 -0.887041846000000 -2.801754682000000
H -0.539927144000000 0.887091553000000 -2.801745142000000

40methanolchloromethane110_2.wfx

