%nprocs=4
%mem=4GB
#p pbepbe aug-cc-pvtz output=wfx scf=(conver=6) int=(grid=ultrafine)

title

0 1
CL 1.565104341000000 0.000007948000000 -3.184943557000000
C -0.219994543000000 0.000019950000000 -3.196026492000000
H -0.549794743000000 0.000026358000000 -4.227655511000000
H -0.562018636000000 -0.887047830000000 -2.678084486000000
H -0.562008841000000 0.887085569000000 -2.678074946000000

40methanolchloromethane105_2.wfx

