%nprocs=4
%mem=4GB
#p pbepbe aug-cc-pvtz output=wfx scf=(conver=6) int=(grid=ultrafine)

title

0 1
CL 2.049591952000000 0.000139259000000 -5.898352780000000
C 0.264493068000000 0.000151261000000 -5.909435715000000
H -0.065307132000000 0.000157669000000 -6.941064734000000
H -0.077531025000000 -0.886916519000000 -5.391493709000000
H -0.077521230000000 0.887216880000000 -5.391484169000000

40methanolchloromethane200_2.wfx

