%nprocs=4
%mem=4GB
#p pbepbe aug-cc-pvtz output=wfx scf=(conver=6) int=(grid=ultrafine)

title

0 1
H 1.101371146000000 -0.000117739000000 -0.587770996000000
O 0.397090227000000 -0.000027546000000 0.067866526000000
C 1.005829292000000 0.000013334000000 1.347930653000000
H 0.205003605000000 -0.000000430000000 2.081297025000000
H 1.620180682000000 -0.886685805000000 1.514496095000000
H 1.620127834000000 0.886756142000000 1.514470494000000
Cl 2.049591952000000 0.000139259000000 -5.898352780000000
C 0.264493068000000 0.000151261000000 -5.909435715000000
H -0.065307132000000 0.000157669000000 -6.941064734000000
H -0.077531025000000 -0.886916519000000 -5.391493709000000
H -0.077521230000000 0.887216880000000 -5.391484169000000

40methanolchloromethane200.wfx

