%nprocs=4
%mem=4GB
#p pbepbe aug-cc-pvtz output=wfx scf=(conver=6) int=(grid=ultrafine)

title

0 1
H 1.101371146000000 -0.000117739000000 -0.587770996000000
O 0.397090227000000 -0.000027546000000 0.067866526000000
C 1.005829292000000 0.000013334000000 1.347930653000000
H 0.205003605000000 -0.000000430000000 2.081297025000000
H 1.620180682000000 -0.886685805000000 1.514496095000000
H 1.620127834000000 0.886756142000000 1.514470494000000
Cl 1.653431126000000 0.000031887000000 -3.679624342000000
C -0.131667758000000 0.000043889000000 -3.690707277000000
H -0.461467958000000 0.000050297000000 -4.722336296000000
H -0.473691851000000 -0.887023891000000 -3.172765271000000
H -0.473682056000000 0.887109508000000 -3.172755731000000

40methanolchloromethane125.wfx

