%nprocs=4
%mem=4GB
#p pbepbe aug-cc-pvtz output=wfx scf=(conver=6) int=(grid=ultrafine)

title

0 1
H 1.101371146000000 -0.000117739000000 -0.587770996000000
O 0.397090227000000 -0.000027546000000 0.067866526000000
C 1.005829292000000 0.000013334000000 1.347930653000000
H 0.205003605000000 -0.000000430000000 2.081297025000000
H 1.620180682000000 -0.886685805000000 1.514496095000000
H 1.620127834000000 0.886756142000000 1.514470494000000
Cl 1.454695861000000 -0.000021977000000 -2.566592577000000
C -0.330403023000000 -0.000009975000000 -2.577675512000000
H -0.660203223000000 -0.000003567000000 -3.609304531000000
H -0.672427116000000 -0.887077755000000 -2.059733506000000
H -0.672417321000000 0.887055644000000 -2.059723966000000

40methanolchloromethane080.wfx

