%nprocs=4
%mem=4GB
#p pbepbe aug-cc-pvtz output=wfx scf=(conver=6) int=(grid=ultrafine)

title

0 1
CL 1.543005068000000 0.000001958000000 -3.061174918000000
C -0.242093816000000 0.000013960000000 -3.072257853000000
H -0.571894016000000 0.000020368000000 -4.103886872000000
H -0.584117909000000 -0.887053820000000 -2.554315847000000
H -0.584108114000000 0.887079579000000 -2.554306307000000

40methanolchloromethane100_2.wfx

