%nprocs=4
%mem=4GB
#p pbepbe aug-cc-pvtz output=wfx scf=(conver=6) int=(grid=ultrafine)

title

0 1
H 1.101371146000000 -0.000117739000000 -0.587770996000000
O 0.397090227000000 -0.000027546000000 0.067866526000000
C 1.005829292000000 0.000013334000000 1.347930653000000
H 0.205003605000000 -0.000000430000000 2.081297025000000
H 1.620180682000000 -0.886685805000000 1.514496095000000
H 1.620127834000000 0.886756142000000 1.514470494000000
Cl 1.543005068000000 0.000001958000000 -3.061174918000000
C -0.242093816000000 0.000013960000000 -3.072257853000000
H -0.571894016000000 0.000020368000000 -4.103886872000000
H -0.584117909000000 -0.887053820000000 -2.554315847000000
H -0.584108114000000 0.887079579000000 -2.554306307000000

40methanolchloromethane100.wfx

