%nprocs=4
%mem=4GB
#p pbepbe aug-cc-pvtz output=wfx scf=(conver=6) int=(grid=ultrafine)

title

0 1
H 1.101371146000000 -0.000117739000000 -0.587770996000000
O 0.397090227000000 -0.000027546000000 0.067866526000000
C 1.005829292000000 0.000013334000000 1.347930653000000
H 0.205003605000000 -0.000000430000000 2.081297025000000
H 1.620180682000000 -0.886685805000000 1.514496095000000
H 1.620127834000000 0.886756142000000 1.514470494000000
Cl 1.498859253000000 -0.000010007000000 -2.813932969000000
C -0.286239631000000 0.000001995000000 -2.825015904000000
H -0.616039831000000 0.000008403000000 -3.856644923000000
H -0.628263724000000 -0.887065785000000 -2.307073898000000
H -0.628253929000000 0.887067614000000 -2.307064358000000

40methanolchloromethane090.wfx

