%nprocs=4
%mem=4GB
#p pbepbe aug-cc-pvtz output=wfx scf=(conver=6) int=(grid=ultrafine)

title

0 1
CL 1.454695861000000 -0.000021977000000 -2.566592577000000
C -0.330403023000000 -0.000009975000000 -2.577675512000000
H -0.660203223000000 -0.000003567000000 -3.609304531000000
H -0.672427116000000 -0.887077755000000 -2.059733506000000
H -0.672417321000000 0.887055644000000 -2.059723966000000

40methanolchloromethane080_2.wfx

