%nprocs=4
%mem=4GB
#p pbepbe aug-cc-pvtz output=wfx scf=(conver=6) int=(grid=ultrafine)

title

0 1
CL 1.793652897000000 0.000069892000000 -4.464946895000000
C 0.008554013000000 0.000081894000000 -4.476029830000000
H -0.321246187000000 0.000088302000000 -5.507658849000000
H -0.333470080000000 -0.886985886000000 -3.958087824000000
H -0.333460285000000 0.887147513000000 -3.958078284000000

40methanolchloromethane150_2.wfx

