%nprocs=4
%mem=4GB
#p pbepbe aug-cc-pvtz output=wfx scf=(conver=6) int=(grid=ultrafine)

title

0 1
H 1.101371146000000 -0.000117739000000 -0.587770996000000
O 0.397090227000000 -0.000027546000000 0.067866526000000
C 1.005829292000000 0.000013334000000 1.347930653000000
H 0.205003605000000 -0.000000430000000 2.081297025000000
H 1.620180682000000 -0.886685805000000 1.514496095000000
H 1.620127834000000 0.886756142000000 1.514470494000000
Cl 1.520940949000000 -0.000004022000000 -2.937603165000000
C -0.264157935000000 0.000007980000000 -2.948686100000000
H -0.593958135000000 0.000014388000000 -3.980315119000000
H -0.606182028000000 -0.887059800000000 -2.430744094000000
H -0.606172233000000 0.887073599000000 -2.430734554000000

40methanolchloromethane095.wfx

