%nprocs=4
%mem=4GB
#p pbepbe aug-cc-pvtz output=wfx scf=(conver=6) int=(grid=ultrafine)

title

0 1
c 0.000000000000000 0.000000000000000 0.066526659380895
f 0.000000000000000 0.000000000000000 -1.325991026582129
h 0.516355625371943 0.894354177918211 0.419821455733744
h 0.516355625371943 -0.894354177918211 0.419821455733744
h -1.032711250743892 0.000000000000000 0.419821455733744

E20.wfx

