%nprocs=4
%mem=4GB
#p pbepbe aug-cc-pvtz output=wfx scf=(conver=6) int=(grid=ultrafine)

title

0 1
c -0.464814112652780 0.195111004109055 0.000000000000000
s 1.374760492131541 0.251124194981770 0.000000000000000
h 1.577905546237812 -1.084294322431306 0.000000000000000
h -0.798784179405787 1.231321178639498 0.000000000000000
h -0.844533873155396 -0.296631027649508 -0.893590149084676
h -0.844533873155396 -0.296631027649508 0.893590149084676

E37.wfx

