%nprocs=4
%mem=4GB
#p pbepbe aug-cc-pvtz output=wfx scf=(conver=6) int=(grid=ultrafine)

title

0 1
c 0.000000000000000 -1.432189609893234 -0.335182613521538
s 0.000000000000000 0.000000000000000 0.783751240775045
c 0.000000000000000 1.432189609893234 -0.335182613521538
o -1.284687932755742 0.000000000000000 1.516533753723035
o 1.284687932755742 0.000000000000000 1.516533753723035
h -0.902084789574066 -1.411029044737236 -0.943485041538341
h 0.902084789574066 -1.411029044737236 -0.943485041538341
h 0.000000000000000 -2.306551707048103 0.313743322487666
h -0.902084789574066 1.411029044737236 -0.943485041538341
h 0.000000000000000 2.306551707048103 0.313743322487666
h 0.902084789574066 1.411029044737236 -0.943485041538341

E38.wfx

