%nprocs=4
%mem=4GB
#p pbepbe aug-cc-pvtz output=wfx scf=(conver=6) int=(grid=ultrafine)

title

0 1
c 0.000000000000000 0.000000000000000 0.852780237124154
c 0.000000000000000 0.000000000000000 -0.660215223305170
cl -0.850007045150840 -1.472255388992751 -1.282557060812388
cl -0.850007045150840 1.472255388992751 -1.282557060812388
cl 1.700014090301681 0.000000000000000 -1.282557060812388
h 0.513136058752472 -0.888777724954930 1.218368722872728
h 0.513136058752472 0.888777724954930 1.218368722872728
h -1.026272117504945 0.000000000000000 1.218368722872728

E5.wfx

