%nprocs=4
%mem=4GB
#p pbepbe aug-cc-pvtz output=wfx scf=(conver=6) int=(grid=ultrafine)

title

0 2
c -0.659158033176874 0.300612479758868 0.000000000000000
c 0.624704587456086 -0.307989017079620 0.000000000000000
o 1.677807898708722 0.336663102458350 0.000000000000000
h -0.736373443400060 1.380799404130749 0.000000000000000
h -1.561858424863334 -0.297763191291979 0.000000000000000
h 0.654877415275465 -1.412322777976368 0.000000000000000

P12.wfx

