%nprocs=4
%mem=4GB
#p pbepbe aug-cc-pvtz output=wfx scf=(conver=6) int=(grid=ultrafine)

title

0 2
c 0.000000000000000 0.000000000000000 0.920032788567512
c 1.215106383612675 0.000000000000000 0.177885795029968
c 1.208384845647571 0.000000000000000 -1.203440399562158
c 0.000000000000000 0.000000000000000 -1.907344885507628
c -1.208384845647571 0.000000000000000 -1.203440399562158
c -1.215106383612675 0.000000000000000 0.177885795029968
c 0.000000000000000 0.000000000000000 2.322638519872043
h 2.155861416655986 0.000000000000000 0.716719085505297
h 2.146970065023047 0.000000000000000 -1.745431113772443
h 0.000000000000000 0.000000000000000 -2.990359365331245
h -2.146970065023047 0.000000000000000 -1.745431113772443
h -2.155861416655986 0.000000000000000 0.716719085505297
h 0.926381254924365 0.000000000000000 2.881783103999002
h -0.926381254924365 0.000000000000000 2.881783103999002

P2.wfx

