%nprocs=4
%mem=4GB
#p pbepbe aug-cc-pvtz output=wfx scf=(conver=6) int=(grid=ultrafine)

title

0 2
c -1.543797557817868 -0.064154870056097 0.030912204694375
s -0.294265428764498 1.126203868151502 0.004220621481003
c 1.205493531932707 0.077973140107036 0.021382222468702
h -2.559639951091305 0.295951067507328 0.086684431318722
h -1.335908922238565 -1.095997255680607 -0.211693411623005
h 2.062722374485957 0.747292001990945 -0.029628629181633
h 1.214332199346235 -0.584612257269495 -0.843595820614834
h 1.251063754147346 -0.502655694750601 0.941718381456686

P34.wfx

