%nprocs=4
%mem=4GB
#p pbepbe aug-cc-pvtz output=wfx scf=(conver=6) int=(grid=ultrafine)

title

0 2
c -0.530290958512718 -0.240243408706088 0.000000000000000
s 1.205793463897925 -0.297660279032194 0.000000000000000
h 1.436590261528851 1.032185342892730 0.000000000000000
h -1.066787633274167 0.692925092531094 0.000000000000000
h -1.045305133639895 -1.187206747685542 0.000000000000000

P37.wfx

