%nprocs=4
%mem=4GB
#p pbepbe aug-cc-pvtz output=wfx scf=(conver=6) int=(grid=ultrafine)

title

0 2
c -1.358694639580161 -0.715774639518225 -0.359000995947022
s -0.361144760608139 0.560528623113019 0.328490790819939
c 1.334752287713554 0.062985771556535 -0.077630470110966
h -1.021771409809215 -1.741863985357800 -0.312952372703298
h -2.385967999275544 -0.450360853108593 -0.563726897743482
o -0.665648902247520 1.814934029027480 -0.392156607320705
o -0.503917738233224 0.505013401961903 1.803892053958782
h 1.444498302524982 0.031128581702548 -1.159663064989511
h 1.973546275140821 0.834230613182879 0.350543876732712
h 1.544348584374468 -0.900821542559731 0.382203687303565

P38.wfx

