%nprocs=4
%mem=4GB
#p pbepbe aug-cc-pvtz output=wfx scf=(conver=6) int=(grid=ultrafine)

title

0 2
c -0.869777873359989 -1.240140484046779 0.043130529308964
s -0.654054634088095 0.375471575404936 -0.608961185828930
o -1.585541015136111 1.346851140255936 0.095525972027495
c 1.065281048488560 0.698064816048426 0.007070990149750
h -1.846879385083930 -1.460710007577279 0.451189746092391
h -0.230575461899456 -2.031004997616286 -0.330382600814386
h 1.742289125178665 -0.056661479689650 -0.392208016848572
h 1.335251219805142 1.686565839936913 -0.360135674463223
h 1.044006976095234 0.681563597283793 1.094770240376516

P39.wfx

