%nprocs=4
%mem=4GB
#p pbepbe aug-cc-pvtz output=wfx scf=(conver=6) int=(grid=ultrafine)

title

0 2
n -1.790577691630248 -0.266662744279266 0.037387610035271
c -0.612104720046610 0.411897375383448 -0.031964224010028
c 0.601137809340839 -0.363801522524689 -0.010662462042726
o 0.577920564907915 -1.599781372898459 -0.014654180029719
n 1.794814773942727 0.337890108665963 -0.035156800262523
h -1.717310920230713 -1.271626382456187 -0.058374566433408
h -2.649889895513332 0.170226003048711 -0.248406107007405
h -0.638014242805458 1.491477632973836 -0.065880783862692
h 1.815784820625041 1.299015307307115 0.264972039717398
h 2.618239501409818 -0.208634405220478 0.162739473895824

P41.wfx

