%nprocs=4
%mem=4GB
#p pbepbe aug-cc-pvtz output=wfx scf=(conver=6) int=(grid=ultrafine)

title

0 2
c -0.735284524021743 0.532186051659634 0.000000000000000
c 0.270881297813834 -0.515365858813874 0.000000000000000
cl 2.011858909482229 0.253935931744539 0.000000000000000
h -1.045940161714296 0.993158905670012 -0.928366426107060
h -1.045940161714296 0.993158905670012 0.928366426107060
h 0.272212320077128 -1.128536967965154 -0.896086660792696
h 0.272212320077128 -1.128536967965154 0.896086660792696

P8.wfx

