%nprocs=4
%mem=4GB
#p pbepbe aug-cc-pvtz output=wfx scf=(conver=6) int=(grid=ultrafine)

title

0 2
c -0.772851057310478 0.417601523553173 0.000000000000000
c 0.457640109992496 -0.398988505829176 0.000000000000000
f 1.608966737530801 0.440556249368083 0.000000000000000
h -1.182923542470027 0.792852188182031 -0.928389896914183
h -1.182923542470027 0.792852188182031 0.928389896914183
h 0.536045647363623 -1.022436821728063 -0.892550861320697
h 0.536045647363623 -1.022436821728063 0.892550861320697

P9.wfx

