%nprocs=4
%mem=4GB
#p pbepbe aug-cc-pvtz output=wfx scf=(conver=6) int=(grid=ultrafine)

title

0 1
c -0.648663794857177 1.221093014957295 1.542609527096220
c -1.411614867408027 0.053299897392113 1.394586162070433
c -0.745014528976690 -1.170426494024722 1.547262346231177
c 0.648663794857177 -1.221093014957295 1.542609527096220
c 1.411614867408027 -0.053299897392113 1.394586162070433
c 2.792872035131640 -0.119653804735632 0.793624904140518
c -2.792872035131640 0.119653804735632 0.793624904140518
c 2.792872035131640 0.119653804735632 -0.793624904140518
c -2.792872035131640 -0.119653804735632 -0.793624904140518
c 1.411614867408027 0.053299897392113 -1.394586162070433
c 0.745014528976690 -1.170426494024722 -1.547262346231177
c -0.648663794857177 -1.221093014957295 -1.542609527096220
c -1.411614867408027 -0.053299897392113 -1.394586162070433
c -0.745014528976690 1.170426494024722 -1.547262346231177
c 0.648663794857177 1.221093014957295 -1.542609527096220
c 0.745014528976690 1.170426494024722 1.547262346231177
h -1.149403980902910 2.190962890830003 1.504737623940366
h -1.315219771152783 -2.101388079270774 1.514150599785315
h 1.149403980902910 -2.190962890830003 1.504737623940366
h 3.459967402896757 0.629923220357712 1.243743169397716
h 3.227796713693968 -1.109412350256961 0.992316393187688
h -3.227796713693968 1.109412350256961 0.992316393187688
h -3.459967402896757 -0.629923220357712 1.243743169397716
h 3.227796713693968 1.109412350256961 -0.992316393187688
h 3.459967402896757 -0.629923220357712 -1.243743169397716
h -3.459967402896757 0.629923220357712 -1.243743169397716
h -3.227796713693968 -1.109412350256961 -0.992316393187688
h 1.315219771152783 -2.101388079270774 -1.514150599785315
h -1.149403980902910 -2.190962890830003 -1.504737623940366
h -1.315219771152783 2.101388079270774 -1.514150599785315
h 1.149403980902910 2.190962890830003 -1.504737623940366
h 1.315219771152783 2.101388079270774 1.514150599785315

pc22.wfx

