%nprocs=4
%mem=4GB
#p pbepbe aug-cc-pvtz output=wfx scf=(conver=6) int=(grid=ultrafine)

title

0 1
h 0.070905790383785 0.792839954191493 0.425035187635136
h -0.900403202426448 0.276019578302553 1.836847982003039
h 0.885222434417877 0.168376628395452 1.894062328493675
c 0.003260118429289 0.072201514984958 1.249290524811885
o 0.005426649322588 0.098923500419541 -2.420459949710102
h -0.773840720850006 -0.224140920072603 -1.938993206065112
h 0.754195545370032 -0.233741729680456 -1.898959914652664
h -0.044766614647102 -0.950478526540927 0.853177047484148

001.wfx

