%nprocs=4
%mem=4GB
#p pbepbe aug-cc-pvtz output=wfx scf=(conver=6) int=(grid=ultrafine)

title

0 2
h -0.168677340415623 -2.965405334176682 1.290460835517261
be -0.041678389421033 -1.350727300751249 -1.246435202890655
h -0.178924980017526 -2.611887265967712 1.955209103451633
p -0.035012070130748 0.682352451867633 -0.910282247665634
h 0.879448290176321 0.488838124305292 0.196077089049412
h -0.064753802203600 -2.667812279942526 -1.517265092188461
h -0.168743322692324 4.551538600054831 0.277011310409744
h -0.221658385295462 3.873103004610423 -0.044775795683305

013.wfx

