%nprocs=4
%mem=4GB
#p pbepbe aug-cc-pvtz output=wfx scf=(conver=6) int=(grid=ultrafine)

title

0 1
li -0.055978759686625 0.132933929606212 -0.750087513199045
h -0.045483199637014 -1.518168235962488 1.575086520265814
li 0.000497938035001 1.886274222323822 0.732360958325933
b -0.015272109025962 -0.295248246676665 1.564004369882540
h 0.057806763703691 -0.736228596277905 -2.621808530272303
h 0.073630089493121 -1.377501388683763 -2.218628111003911
h -0.039641946599832 1.878790008493354 -1.027949439135482
h 0.024441223717620 0.029148307177431 2.747021745136442

023.wfx

