%nprocs=4
%mem=4GB
#p pbepbe aug-cc-pvtz output=wfx scf=(conver=6) int=(grid=ultrafine)

title

0 1
h 1.926036042988826 0.018488066504049 -0.749918183962760
h -0.733399458579197 0.020841103059045 -2.429313803831245
h -1.354899554066468 -0.002712270908099 -1.995004243247597
h -0.661004357993413 -1.055816958459710 1.359736214092227
h -0.688425541433747 1.033183141803808 1.381418559342172
h 1.156546161513240 0.014938174773687 1.050947810453645
li 0.301100067009854 -0.020572772251366 -0.672144909256247
p 0.054046640560905 -0.008348484521400 2.054278556409788

047.wfx

