%nprocs=4
%mem=4GB
#p pbepbe aug-cc-pvtz output=wfx scf=(conver=6) int=(grid=ultrafine)

title

0 1
o 0.757420326982204 -0.005099289396075 0.755144153981886
h -1.017944023978377 1.027573227019081 1.021843927173422
h -0.960932371314177 -0.607350462576973 1.741440951225193
c -0.641909480569578 0.000491691450915 0.878020967842676
h 0.380378428746002 0.005718775074189 -2.173415399997326
h 0.126237374894649 -0.006723617600773 -2.881555857438029
al 2.470790659019834 -0.000426242162270 0.687087468775304
h -1.114040913780552 -0.414184081808078 -0.028566211563116

048.wfx

