%nprocs=4
%mem=4GB
#p pbepbe aug-cc-pvtz output=wfx scf=(conver=6) int=(grid=ultrafine)

title

0 1
h -0.467942274784683 -0.102436224576106 2.328432009230341
h -0.662876481425509 0.026802130266749 1.610968021117198
h -1.021133517056682 1.935616854369892 -0.893389149441892
h 1.674474687706114 0.180448298006310 -0.466780711087890
h -0.736645316982633 -1.181636812474354 -1.389805970669843
na -0.069605141466295 -2.408927165314471 -0.099280986140717
h -0.987057695138863 1.195675402761371 -1.053186935331702
h 2.270785739148536 0.354457516960599 -0.036956277675510

062.wfx

