%nprocs=4
%mem=4GB
#p pbepbe aug-cc-pvtz output=wfx scf=(conver=6) int=(grid=ultrafine)

title

0 1
h 1.203891957989927 -0.019654281143445 -0.434675893149443
f 0.007341939092219 2.054600977224009 -0.030568233757217
n 0.804901178304775 -0.967996549734880 -0.512459882325876
b -0.009435595819698 -1.343840382777083 0.594840995079266
h -1.168821426661766 -0.000614387465260 -0.462214901146159
h -0.022614432036537 2.929089960943643 -0.359264269820417
n -0.787640626070551 -0.954208226627684 -0.528468623938231
h -0.027622994798373 -1.697377110419305 1.732810809058091

077.wfx

