%nprocs=4
%mem=4GB
#p pbepbe aug-cc-pvtz output=wfx scf=(conver=6) int=(grid=ultrafine)

title

0 2
h 4.446067529594876 -0.438955854911939 -1.948556199224430
h -2.282888864035127 -0.759397891192778 0.852215502852257
h -3.790987777116789 -0.046020130383498 -0.024042340896817
c -2.786149017809203 0.076695026694543 0.372940263468647
h 4.051511123868385 -0.095533711135472 -1.407988045390757
c 1.797439910047627 0.309756351080886 0.681921790525920
o 0.851143907013887 -0.085785839596631 1.176074187623764
h -2.286136811563639 1.039242049444873 0.297434841041405

085.wfx

