%nprocs=4
%mem=4GB
#p pbepbe aug-cc-pvtz output=wfx scf=(conver=6) int=(grid=ultrafine)

title

0 2
h 0.013894095936508 0.746974757839930 -2.816029948737388
h -1.161611858616641 -1.324378660764031 1.228186114866281
h 0.015403836256093 1.422305823408275 -0.497751869286395
h 1.264667050981362 -1.150892822064642 1.338511427809861
p -0.003161070632959 -0.443563588504835 -1.997757814242302
si -0.002834247823488 -0.378760314669069 1.107550153034247
n -0.007197882800520 0.405711182816545 -0.480492095330677
h -0.119159923300345 0.722603621937843 2.117784031886362

093.wfx

