%nprocs=4
%mem=4GB
#p pbepbe aug-cc-pvtz output=wfx scf=(conver=6) int=(grid=ultrafine)

title

0 1
h -0.431271139912557 0.914673437926208 1.721069276336983
h -1.050804445335157 0.000777027348242 -2.225048934513581
c -0.047991922839048 0.000821294963646 1.233949420715542
h -0.448635558601874 -0.907525975925609 1.717569807033513
h 1.045584618301445 0.001447664410616 -2.118410098403907
b -0.034187026535802 0.000281469992844 -1.574556579820453
h 1.046917949674844 -0.012017912312178 1.439288715282551
c -0.079612474751845 0.001542993596245 -0.193861606630663

100.wfx

