%nprocs=4
%mem=4GB
#p pbepbe aug-cc-pvtz output=wfx scf=(conver=6) int=(grid=ultrafine)

title

0 2
h 0.996130636335548 0.680605888702912 0.903762048314348
c -0.039580336895805 0.916015562139746 0.615614775308328
h -0.870309346579119 -2.734553874948886 0.760479512739286
h -0.690291969683164 1.377953836717333 1.358410723995938
h 0.745737321467206 -0.762297984728364 -1.536883204769663
h 0.272492467940814 0.705804909401607 -1.251654151460626
mg -0.141322982693022 -1.507128433444218 -0.193834257668043
o -0.272855789892462 1.323600096159856 -0.655895446459551

102.wfx

