%nprocs=4
%mem=4GB
#p pbepbe aug-cc-pvtz output=wfx scf=(conver=6) int=(grid=ultrafine)

title

0 2
h 0.710573958863254 -1.839264749060028 -0.130894167183451
c 0.049487427557752 -0.984733378147955 0.058853586766157
n 0.835592578582648 0.225764174123181 0.030349916439300
h -0.754922505100712 -0.989459756490578 -0.710603347111638
h -0.926383648661326 1.241794278241961 -0.289278145111168
h -0.438502891438574 -1.137484096344483 1.042846018000634
n 0.022859294531391 1.305201010795107 0.105332010945776
h 0.501295785665561 2.178182516882789 -0.106605872745615

107.wfx

