%nprocs=4
%mem=4GB
#p pbepbe aug-cc-pvtz output=wfx scf=(conver=6) int=(grid=ultrafine)

title

0 2
n 0.852180834489075 0.065811529317770 1.542926208896770
c -0.454321694540171 0.040158507963213 1.511265638478511
h 0.513887271227717 -1.046303748965286 -1.152310895947595
h -1.271277105311116 -0.211812903536892 2.192390236398792
h 0.930751222344136 0.614341010110466 -1.629969225174603
c 0.025628846633281 0.437311000194894 0.296421408904566
c 0.176791955456202 0.008173934074427 -1.106771538949706
h -0.773641330299125 0.092320670841423 -1.653951832606726

111.wfx

