%nprocs=4
%mem=4GB
#p pbepbe aug-cc-pvtz output=wfx scf=(conver=6) int=(grid=ultrafine)

title

0 1
o -2.444502629392947 0.340690509889361 -0.148888247840845
h 3.067599657593908 1.409036710712066 0.284302655762946
h 0.046490883156886 0.427030769905352 -0.979933319258480
h 2.405511774860636 1.245059082840429 0.601205204725743
n -1.499423762083656 -0.472143635961409 0.053975149448093
h -1.730939902985204 -1.306186155177143 0.636064117065183
c -0.255776814915995 -0.417067883471538 -0.365925862950627
h 0.411040793766382 -1.226419398737113 -0.080799696952003

115.wfx

