%nprocs=4
%mem=4GB
#p pbepbe aug-cc-pvtz output=wfx scf=(conver=6) int=(grid=ultrafine)

title

0 1
h 0.632426022871205 -1.306248677809341 0.914508945502962
h -0.109602445679505 0.875955423582318 -1.412491276498502
s 0.193555837996915 0.939491561110293 0.000107683311221
h -0.109888562781222 0.877005772914784 1.412437509382192
c 0.124100545988164 -0.967676724978095 0.000160012002394
h 0.640493059635607 -1.306172732050856 -0.909647884492099
h -0.918421294142217 -1.306984885540265 -0.004746167344182
h -0.452663163888958 2.194630262771167 -0.000328821863976

141.wfx

