%nprocs=4
%mem=4GB
#p pbepbe aug-cc-pvtz output=wfx scf=(conver=6) int=(grid=ultrafine)

title

0 1
c 0.545575862279050 0.874856734475464 -0.189387649998010
h -0.546469014758067 0.916351873149955 -0.160443852582282
c 1.256843757996180 -0.244746297978459 0.400470840440606
h 1.673254037056124 -0.769153477778554 1.260985748980708
h 1.058800502830693 1.818932650698469 -0.389159735214152
h -2.529677574389201 -0.867974421748767 -0.329398846391102
n 1.165377211400843 -0.395959571692810 -0.847348490561241
h -2.623704782415621 -1.332307489125303 0.254281985325484

151.wfx

