%nprocs=4
%mem=4GB
#p pbepbe aug-cc-pvtz output=wfx scf=(conver=6) int=(grid=ultrafine)

title

0 1
al -1.102420327565788 -1.225151002047382 0.545604201743202
li -0.528088259624957 0.522379898211075 -1.238334100644483
h -2.034680189080551 -0.085354901443209 -0.343542503697406
c 0.656525699085259 0.219258414461358 0.488626628818298
h -0.161111650046099 -1.570299916562171 -0.988982025393251
al 1.358939264122615 -1.796697080923262 0.150263570181735
h 1.008869479876924 2.485543610653168 0.796214227480794
c 0.801965983232582 1.450320977650439 0.590150001511123

155.wfx

