%nprocs=4
%mem=4GB
#p pbepbe aug-cc-pvtz output=wfx scf=(conver=6) int=(grid=ultrafine)

title

0 1
h 0.916931752626023 -0.284714179838920 1.254264953709519
h 0.702336704480218 -2.703113063582911 -1.382917954754228
si -0.275856252767271 0.225826926453805 0.484471302843560
si -0.356002653853415 1.984461285678450 -0.951530840542397
cl -0.326561008562898 -2.812029221339241 -0.598637834691228
h 1.184839816348634 1.955431304018314 -0.832726393183227
h -1.509887506320074 -0.242652985797842 1.209636393575455
h -0.335800851951213 1.876789934408360 0.817440373042531

156.wfx

