%nprocs=8
%mem=4GB
#p b3lyp aug-cc-pvqz output=wfx scf=(conver=6) int=(grid=ultrafine)

title

0 1
C    0.00000000    2.20000000    0.00000000
H    0.00000000    3.29950300    0.00000000
H   -0.51831072    1.83349921    0.89774050
H   -0.51831072    1.83349921   -0.89774050
H    1.03662144    1.83349921    0.00000000

NBC10ext_6_1.22_monomerA.wfx

