%nprocs=8
%mem=4GB
#p b3lyp aug-cc-pvqz output=wfx scf=(conver=6) int=(grid=ultrafine)

title

0 1
C    0.00000000   -4.31389976    0.00000000
H    0.00000000   -3.21439676    0.00000000
H   -0.51831072   -4.68040055   -0.89774050
H    1.03662144   -4.68040055    0.00000000
H   -0.51831072   -4.68040055    0.89774050

NBC10ext_5_1.37_monomerB.wfx

