%nprocs=8
%mem=4GB
#p b3lyp aug-cc-pvqz output=wfx scf=(conver=6) int=(grid=ultrafine)

title

0 1
C    0.00000000    0.00000000    1.85850000
C   -1.20507435    0.00000000    2.55425000
C   -1.20507435    0.00000000    3.94575000
C    0.00000000    0.00000000    4.64150000
C    1.20507435    0.00000000    3.94575000
C    1.20507435    0.00000000    2.55425000
H    0.00000000    0.00000000    0.77850000
H   -2.14038179    0.00000000    2.01425000
H   -2.14038179    0.00000000    4.48575000
H    0.00000000    0.00000000    5.72150000
H    2.14038179    0.00000000    4.48575000
H    2.14038179    0.00000000    2.01425000

NBC10ext_2_1.3_monomerB.wfx

