%nprocs=8
%mem=4GB
#p b3lyp aug-cc-pvqz output=wfx scf=(conver=6) int=(grid=ultrafine)

title

0 1
C    0.00000000   -2.73766716    0.00000000
H    0.00000000   -1.63816416    0.00000000
H   -0.51831072   -3.10416795   -0.89774050
H    1.03662144   -3.10416795    0.00000000
H   -0.51831072   -3.10416795    0.89774050

NBC10ext_5_0.87_monomerB.wfx

