%nprocs=8
%mem=4GB
#p b3lyp aug-cc-pvqz output=wfx scf=(conver=6) int=(grid=ultrafine)

title

0 1
C    0.00000000    0.00000000    0.75850000
C   -1.20507435    0.00000000    1.45425000
C   -1.20507435    0.00000000    2.84575000
C    0.00000000    0.00000000    3.54150000
C    1.20507435    0.00000000    2.84575000
C    1.20507435    0.00000000    1.45425000
H    0.00000000    0.00000000   -0.32150000
H   -2.14038179    0.00000000    0.91425000
H   -2.14038179    0.00000000    3.38575000
H    0.00000000    0.00000000    4.62150000
H    2.14038179    0.00000000    3.38575000
H    2.14038179    0.00000000    0.91425000

NBC10ext_2_0.86_monomerB.wfx

