%nprocs=8
%mem=4GB
#p b3lyp aug-cc-pvqz output=wfx scf=(conver=6) int=(grid=ultrafine)

title

0 1
N   -1.39803800    2.05000000    0.00000000
C   -0.69853710    2.05000000   -1.14013004
C    0.69418190    2.05000000   -1.19534022
C    1.40674710    2.05000000    0.00000000
C    0.69418190    2.05000000    1.19534022
C   -0.69853710    2.05000000    1.14013004
H   -1.28166922    2.05000000   -2.05688474
H    1.19992540    2.05000000   -2.15254776
H    2.48854710    2.05000000    0.00000000
H    1.19992540    2.05000000    2.15254776
H   -1.28166922    2.05000000    2.05688474
N    1.39803800   -2.05000000    0.00000000
C    0.69853710   -2.05000000   -1.14013004
C   -0.69418190   -2.05000000   -1.19534022
C   -1.40674710   -2.05000000    0.00000000
C   -0.69418190   -2.05000000    1.19534022
C    0.69853710   -2.05000000    1.14013004
H    1.28166922   -2.05000000   -2.05688474
H   -1.19992540   -2.05000000   -2.15254776
H   -2.48854710   -2.05000000    0.00000000
H   -1.19992540   -2.05000000    2.15254776
H    1.28166922   -2.05000000    2.05688474

NBC10ext_7_1.11_dimer.wfx

