%nprocs=8
%mem=4GB
#p b3lyp aug-cc-pvqz output=wfx scf=(conver=6) int=(grid=ultrafine)

title

0 1
C    0.70000000   -1.70000000   -1.39150000
C    1.90507435   -1.70000000   -0.69575000
C    1.90507435   -1.70000000    0.69575000
C    0.70000000   -1.70000000    1.39150000
C   -0.50507435   -1.70000000    0.69575000
C   -0.50507435   -1.70000000   -0.69575000
H    0.70000000   -1.70000000   -2.47150000
H    2.84038179   -1.70000000   -1.23575000
H    2.84038179   -1.70000000    1.23575000
H    0.70000000   -1.70000000    2.47150000
H   -1.44038179   -1.70000000    1.23575000
H   -1.44038179   -1.70000000   -1.23575000

NBC10ext_3_0.94_monomerA.wfx

