%nprocs=8
%mem=4GB
#p b3lyp aug-cc-pvqz output=wfx scf=(conver=6) int=(grid=ultrafine)

title

0 1
C    0.00000000    1.39150000   -2.75000000
C    1.20507435    0.69575000   -2.75000000
C    1.20507435   -0.69575000   -2.75000000
C    0.00000000   -1.39150000   -2.75000000
C   -1.20507435   -0.69575000   -2.75000000
C   -1.20507435    0.69575000   -2.75000000
H    0.00000000    2.47150000   -2.75000000
H    2.14038179    1.23575000   -2.75000000
H    2.14038179   -1.23575000   -2.75000000
H    0.00000000   -2.47150000   -2.75000000
H   -2.14038179   -1.23575000   -2.75000000
H   -2.14038179    1.23575000   -2.75000000
C    0.00000000    0.00000000    1.35850000
C   -1.20507435    0.00000000    2.05425000
C   -1.20507435    0.00000000    3.44575000
C    0.00000000    0.00000000    4.14150000
C    1.20507435    0.00000000    3.44575000
C    1.20507435    0.00000000    2.05425000
H    0.00000000    0.00000000    0.27850000
H   -2.14038179    0.00000000    1.51425000
H   -2.14038179    0.00000000    3.98575000
H    0.00000000    0.00000000    5.22150000
H    2.14038179    0.00000000    3.98575000
H    2.14038179    0.00000000    1.51425000

NBC10ext_2_1.1_dimer.wfx

