%nprocs=8
%mem=4GB
#p b3lyp aug-cc-pvqz output=wfx scf=(conver=6) int=(grid=ultrafine)

title

0 1
C   -0.40000000    1.60000000    1.39150000
C    0.80507435    1.60000000    0.69575000
C    0.80507435    1.60000000   -0.69575000
C   -0.40000000    1.60000000   -1.39150000
C   -1.60507435    1.60000000   -0.69575000
C   -1.60507435    1.60000000    0.69575000
H   -0.40000000    1.60000000    2.47150000
H    1.74038179    1.60000000    1.23575000
H    1.74038179    1.60000000   -1.23575000
H   -0.40000000    1.60000000   -2.47150000
H   -2.54038179    1.60000000   -1.23575000
H   -2.54038179    1.60000000    1.23575000

NBC10ext_9_0.84_monomerB.wfx

