%nprocs=8
%mem=4GB
#p b3lyp aug-cc-pvqz output=wfx scf=(conver=6) int=(grid=ultrafine)

title

0 1
N   -1.39803800    3.25000000    0.00000000
C   -0.69853710    3.25000000   -1.14013004
C    0.69418190    3.25000000   -1.19534022
C    1.40674710    3.25000000    0.00000000
C    0.69418190    3.25000000    1.19534022
C   -0.69853710    3.25000000    1.14013004
H   -1.28166922    3.25000000   -2.05688474
H    1.19992540    3.25000000   -2.15254776
H    2.48854710    3.25000000    0.00000000
H    1.19992540    3.25000000    2.15254776
H   -1.28166922    3.25000000    2.05688474
N    1.39803800   -3.25000000    0.00000000
C    0.69853710   -4.39013004    0.00000000
C   -0.69418190   -4.44534022    0.00000000
C   -1.40674710   -3.25000000    0.00000000
C   -0.69418190   -2.05465978    0.00000000
C    0.69853710   -2.10986996    0.00000000
H    1.28166922   -5.30688474    0.00000000
H   -1.19992540   -5.40254776    0.00000000
H   -2.48854710   -3.25000000    0.00000000
H   -1.19992540   -1.09745224    0.00000000
H    1.28166922   -1.19311526    0.00000000

NBC10ext_8_1.33_dimer.wfx

