%nprocs=8
%mem=4GB
#p b3lyp aug-cc-pvqz output=wfx scf=(conver=6) int=(grid=ultrafine)

title

0 1
C    0.00000000   -1.39150000    2.10690122
C    1.20507435   -0.69575000    2.10690122
C    1.20507435    0.69575000    2.10690122
C    0.00000000    1.39150000    2.10690122
C   -1.20507435    0.69575000    2.10690122
C   -1.20507435   -0.69575000    2.10690122
H    0.00000000   -2.47150000    2.10690122
H    2.14038179   -1.23575000    2.10690122
H    2.14038179    1.23575000    2.10690122
H    0.00000000    2.47150000    2.10690122
H   -2.14038179    1.23575000    2.10690122
H   -2.14038179   -1.23575000    2.10690122
S    0.00000000    0.00000000   -4.89309878
H    0.00000000    0.96172129   -3.96631967
H    0.00000000   -0.96172129   -3.96631967

NBC10ext_4_1.84_dimer.wfx

