%nprocs=8
%mem=4GB
#p b3lyp aug-cc-pvqz output=wfx scf=(conver=6) int=(grid=ultrafine)

title

0 1
C    0.00000000   -1.39150000    1.65184939
C    1.20507435   -0.69575000    1.65184939
C    1.20507435    0.69575000    1.65184939
C    0.00000000    1.39150000    1.65184939
C   -1.20507435    0.69575000    1.65184939
C   -1.20507435   -0.69575000    1.65184939
H    0.00000000   -2.47150000    1.65184939
H    2.14038179   -1.23575000    1.65184939
H    2.14038179    1.23575000    1.65184939
H    0.00000000    2.47150000    1.65184939
H   -2.14038179    1.23575000    1.65184939
H   -2.14038179   -1.23575000    1.65184939
S    0.00000000    0.00000000   -3.84815061
H    0.00000000    0.96172129   -2.92137149
H    0.00000000   -0.96172129   -2.92137149

NBC10ext_4_1.45_dimer.wfx

