%nprocs=8
%mem=4GB
#p b3lyp aug-cc-pvqz output=wfx scf=(conver=6) int=(grid=ultrafine)

title

0 1
C    0.00000000    0.00000000    0.78350000
C   -1.20507435    0.00000000    1.47925000
C   -1.20507435    0.00000000    2.87075000
C    0.00000000    0.00000000    3.56650000
C    1.20507435    0.00000000    2.87075000
C    1.20507435    0.00000000    1.47925000
H    0.00000000    0.00000000   -0.29650000
H   -2.14038179    0.00000000    0.93925000
H   -2.14038179    0.00000000    3.41075000
H    0.00000000    0.00000000    4.64650000
H    2.14038179    0.00000000    3.41075000
H    2.14038179    0.00000000    0.93925000

NBC10ext_2_0.87_monomerB.wfx

