%nprocs=8
%mem=4GB
#p b3lyp aug-cc-pvqz output=wfx scf=(conver=6) int=(grid=ultrafine)

title

0 1
C    0.00000000    0.00000000    1.20850000
C   -1.20507435    0.00000000    1.90425000
C   -1.20507435    0.00000000    3.29575000
C    0.00000000    0.00000000    3.99150000
C    1.20507435    0.00000000    3.29575000
C    1.20507435    0.00000000    1.90425000
H    0.00000000    0.00000000    0.12850000
H   -2.14038179    0.00000000    1.36425000
H   -2.14038179    0.00000000    3.83575000
H    0.00000000    0.00000000    5.07150000
H    2.14038179    0.00000000    3.83575000
H    2.14038179    0.00000000    1.36425000

NBC10ext_2_1.04_monomerB.wfx

