%nprocs=8
%mem=4GB
#p b3lyp aug-cc-pvqz output=wfx scf=(conver=6) int=(grid=ultrafine)

title

0 1
C    0.00000000    1.80000000   -1.39150000
C    1.20507435    1.80000000   -0.69575000
C    1.20507435    1.80000000    0.69575000
C    0.00000000    1.80000000    1.39150000
C   -1.20507435    1.80000000    0.69575000
C   -1.20507435    1.80000000   -0.69575000
H    0.00000000    1.80000000   -2.47150000
H    2.14038179    1.80000000   -1.23575000
H    2.14038179    1.80000000    1.23575000
H    0.00000000    1.80000000    2.47150000
H   -2.14038179    1.80000000    1.23575000
H   -2.14038179    1.80000000   -1.23575000

NBC10ext_1_0.92_monomerA.wfx

