%nprocs=4
%mem=4GB
#p pbepbe aug-cc-pvtz output=wfx scf=(conver=6) int=(grid=ultrafine)

title

0 1
h 1.571409968179607 0.326215957361323 0.667100830224121
h -0.253062460541842 1.992814483175913 0.539906154045731
c 0.585027040357933 -0.058492740152649 0.392392066828100
c -0.489279967078628 0.954113917261195 0.293516083024378
s 0.083515644090244 0.486055584545919 -1.411032049428742
f -0.120994754849843 -2.858130637353400 -0.647464373929337
be 0.147182087668706 -1.512240992184070 -0.329739055174382
h -1.523797557826172 0.669664427345780 0.495320344410146

021.wfx

