%nprocs=4
%mem=4GB
#p pbepbe aug-cc-pvtz output=wfx scf=(conver=6) int=(grid=ultrafine)

title

0 1
h 0.832620622566908 -2.201451733815230 0.760755340597175
b -0.236729717497356 -1.654234584726041 0.682642972729776
f -1.181206560947437 -2.246151186211644 -0.048579176181782
h -0.521565981454274 -0.620834767780198 1.229896825870888
h 1.100033780557903 0.459570207719112 -1.039994281467933
h 1.554366301042746 -0.086272732420871 -1.291015717208144
cl -0.810228292200151 2.649147063835232 0.231111466733216
h -0.737290152068344 3.700227733399640 -0.524817431073181

033.wfx

