%nprocs=4
%mem=4GB
#p pbepbe aug-cc-pvtz output=wfx scf=(conver=6) int=(grid=ultrafine)

title

0 1
be -0.875646521622663 1.382110736595599 -0.223301528775274
li 1.535966679626480 1.958693735119971 -0.211998758466719
n -0.947323199574471 -0.679960532037246 -0.332689598945407
n -1.900811951036024 0.097545466756973 -0.608427395186855
h 0.455003688368045 -0.647908238060347 1.799467077693824
be 0.569631413029589 -0.264247502515608 0.483661872415684
h -1.182452004509709 -1.697405360359267 -0.432913585327238
cl 2.345631895718743 -0.148828305500064 -0.473798083408016

040.wfx

