%nprocs=4
%mem=4GB
#p pbepbe aug-cc-pvtz output=wfx scf=(conver=6) int=(grid=ultrafine)

title

0 1
h -1.286388977540047 1.350476356992750 -0.710229464962085
c -0.421800455466086 0.707165303222739 -0.524984159997408
o -0.679677161838078 -0.744767108182887 -0.964316287738249
b 0.269659062232875 -0.074085524644640 -1.633107009431089
h 0.327254079463415 -0.586052272787238 2.806931944166833
h -0.020511529729316 0.762345698327975 0.491089226402908
h 0.792247479197034 -1.118017626888506 3.064111660364561
h 1.019217503680198 -0.297064826040177 -2.529495908805488

053.wfx

