%nprocs=4
%mem=4GB
#p pbepbe aug-cc-pvtz output=wfx scf=(conver=6) int=(grid=ultrafine)

title

0 1
h 0.846093363596558 -0.676748372035082 0.992120007175185
be -0.592701791257135 0.399367235187730 0.636425834549598
h -0.635083735998308 -1.716003440943374 -1.446246654841868
h -0.130958174533307 -1.780968010980783 -2.001977252222923
h 1.250219919709800 -0.060073052551742 0.773349389360383
h -1.341710640215491 -0.657880460720597 1.003824183161536
h 0.981881457063739 2.263697775951680 0.008316819110683
s -0.377740398365861 2.228608326092158 0.034187673707415

061.wfx

