%nprocs=4
%mem=4GB
#p pbepbe aug-cc-pvtz output=wfx scf=(conver=6) int=(grid=ultrafine)

title

0 1
h 1.343691970573368 0.866248465194624 1.101625310014411
o -1.012198732435628 0.214842087736381 0.773929090108712
mg -0.730680218879774 0.356481427468441 -1.018497183948661
h -0.537764021906092 0.582699668362757 -2.693600693382247
h 2.071269470727219 1.077896225268296 1.084929277687673
h -1.365414830495861 0.609683112687277 1.574417245447150
h -0.011951085312491 -1.726728898986636 -0.075845203022487
h 0.243047447729276 -1.981122087731135 -0.746957842904567

065.wfx

