%nprocs=4
%mem=4GB
#p pbepbe aug-cc-pvtz output=wfx scf=(conver=6) int=(grid=ultrafine)

title

0 1
li -1.204750868007185 -2.433593255815930 -0.001085289325860
si 1.256663991209529 -1.852403966319952 0.000082767931198
be -0.459808809576764 -0.213168914297746 -0.001173273713294
b 1.358046922572643 -0.020964192206150 -0.003031691009459
h 0.884686304673922 2.544542480681456 0.002165158203391
b 0.606252035183391 1.380025534948256 0.000260348808792
h -1.768161456947985 -0.725850285637753 -0.000644364424088
h -0.672928119107534 1.321412598647802 0.003426343529315

074.wfx

