%nprocs=4
%mem=4GB
#p pbepbe aug-cc-pvtz output=wfx scf=(conver=6) int=(grid=ultrafine)

title

0 1
o -1.242553222000484 0.046892781079523 0.687462043009698
al -0.235245313391500 -0.198588786876431 2.307801893816633
h 1.816202061315472 1.629410792691363 -1.137799293663007
h 0.690347000566656 -1.109050998887540 0.885327676824430
h -2.061366129286154 0.491635164538385 0.426474926935453
be -0.238891097869814 -0.779762293383441 -0.202971143524256
h 1.507638053774117 1.014001878339806 -1.445470858503219
h -0.236131353108294 -1.094538537501676 -1.520825244895746

078.wfx

