%nprocs=4
%mem=4GB
#p pbepbe aug-cc-pvtz output=wfx scf=(conver=6) int=(grid=ultrafine)

title

0 1
h -1.795869639830609 0.194758395590670 -1.637165998412258
h -1.872484732540861 0.209012415409176 1.324405734012276
li -0.302206177898885 0.189252933055936 -0.115449352527905
h 2.128169183456908 -1.187552030184717 -0.390365540398171
h -1.116968263495488 0.189288381155528 -1.977275630431621
h -1.212822581434770 0.100966548260645 1.686982337248028
p 2.041229021665981 0.237353486222854 -0.162059025106244
h 2.130953190077739 0.066919870489918 1.270927475615901

081.wfx

