%nprocs=4
%mem=4GB
#p pbepbe aug-cc-pvtz output=wfx scf=(conver=6) int=(grid=ultrafine)

title

0 2
h -0.971937895119408 -1.230127516483894 0.594000391903872
h -1.420475789622941 2.369389064778857 0.112708917056406
h -0.175911144655058 -0.714392132191271 -0.924670471022206
h -0.719047082383365 2.268066440657017 -0.138326229954544
c -0.051814273139649 -1.290944981321348 -0.000050611573966
h 0.783840341727622 -0.877820179855784 0.577908911289966
h 0.156404923929401 -2.338896807107656 -0.246970989997725
h 2.398940919263387 1.814726111524096 0.025400082298208

090.wfx

