%nprocs=4
%mem=4GB
#p pbepbe aug-cc-pvtz output=wfx scf=(conver=6) int=(grid=ultrafine)

title

0 2
p -1.056640418896575 -0.041647476778072 -0.930691374520300
h -0.193958123684338 1.676253457147021 0.608648145165817
o -0.222118561191523 0.703639920079369 0.586250814828130
h -3.013973505281544 -1.378237188059483 1.572816478919722
h -0.424264523390929 0.886713880790382 -1.845028697518288
al 1.100999480542394 -0.527021484994973 -0.098786240770549
f 2.355224616634492 0.372093769738645 -0.806618973012695
h 1.454731035268023 -1.691794877922905 0.913409846908173

116.wfx

