%nprocs=4
%mem=4GB
#p pbepbe aug-cc-pvtz output=wfx scf=(conver=6) int=(grid=ultrafine)

title

0 1
h 0.039169163133455 -1.721016976426393 -0.863675502271348
h -1.114631949631024 1.711626862641845 0.111977708394519
h -1.241467337733256 -0.417743914103865 -0.790564699388494
s 0.016847182245940 1.531862599537469 0.883511304580437
c -0.306102395723240 -0.806377710764057 -0.365111610195276
si 0.109393548575475 -0.797167296115750 1.556772377412795
c 0.783335176692288 0.145472908743262 -0.002517590809736
h 1.713456612440346 0.353343526487490 -0.530391987722887

130.wfx

