%nprocs=4
%mem=4GB
#p pbepbe aug-cc-pvtz output=wfx scf=(conver=6) int=(grid=ultrafine)

title

0 1
c 0.178422013505421 0.089198744290388 0.391878538372562
f 0.102395935498221 -0.003966490339081 -3.069777342154542
c -0.710080784823211 -0.011934819606426 1.413228348703347
h -1.789653523596029 -0.035598353098386 1.562745664333050
h 0.177594330595734 0.186381680371086 -0.693726956235897
h -0.306016455122646 -0.100834737337959 -3.903079620377412
b 0.725195282518190 -0.030047680904266 1.760759171512037
h 1.622143201424306 -0.093198343375367 2.537972195846844

132.wfx

