%nprocs=4
%mem=4GB
#p pbepbe aug-cc-pvtz output=wfx scf=(conver=6) int=(grid=ultrafine)

title

0 1
h 0.159363903978045 0.342933595374170 1.276568587693169
h 0.306787270617569 1.454378198486266 -0.962795608571235
o 0.132959759773643 -0.635671248533072 1.479610104781111
s 0.173285409403076 2.261703302644225 0.127029902244727
c 0.132870348423966 -1.929211943425502 -0.681694224936951
h 0.137525949842462 -2.522168092743451 -1.570114022079888
c 0.135623781611999 -1.293174077833141 0.352076273036550
h -1.178416423650770 2.321210266030515 -0.020681012167494

142.wfx

