%nprocs=4
%mem=4GB
#p pbepbe aug-cc-pvtz output=wfx scf=(conver=6) int=(grid=ultrafine)

title

0 1
c 0.485041654135244 -1.206750100577415 -0.078048998158124
h 0.623014803653168 -2.299717206758483 -0.131058054386904
h 1.391791528013282 -0.590058974353982 -0.021445646430288
h -0.118178327753228 2.519400117737018 0.746630001979695
n -0.643494714920978 -0.615057733361322 -0.079688625014455
h -1.429065164287212 -1.278393744313263 -0.142075140077997
h -0.372190039790889 1.292221821909738 -0.150998561206555
o 0.063080260950603 2.178355819717703 -0.143314976705357

152.wfx

