%nprocs=4
%mem=4GB
#p pbepbe aug-cc-pvtz output=wfx scf=(conver=6) int=(grid=ultrafine)

title

0 1
h -1.368170734073734 0.331451281961630 0.311841763039317
h 2.821831747062819 0.198689219786342 0.860434053868099
n -0.937000688308168 1.175308655985864 -0.167830349725874
h -1.398772537161817 2.082990807872801 0.133438237386687
cl -0.440861916573117 -1.990415931930470 -0.500064683744010
h -0.956309630607225 -3.068758534224283 0.015953116958855
n -0.028126111563477 1.101000380145014 -0.966256840988809
h 2.307409871224725 0.169734120403107 0.312484703205750

161.wfx

