%nprocs=4
%mem=4GB
#p pbepbe aug-cc-pvtz output=wfx scf=(conver=6) int=(grid=ultrafine)

title

0 1
b 0.000000000000000 0.000000000000000 0.000000000000000
h 0.600058240100028 1.039331359353612 0.000000000000000
h 0.600058240100028 -1.039331359353612 0.000000000000000
h -1.200116480200055 0.000000000000000 0.000000000000000

169_b.wfx

