%nprocs=4
%mem=2GB
#p hf aug-cc-pvdz output=wfx scf=(conver=6) int=(grid=ultrafine)

title

0 1
C        1.9588223710         0.0634484730         0.0000000000
O        1.3576707070        -1.1107821810         0.0000000000
O        1.3744154300         1.1340602250         0.0000000000
C        3.4585284810        -0.0511288740         0.0000000000
H        0.3562296510        -1.0215334950         0.0000000000
H        3.7825293780        -0.6104198230        -0.8766337420
H        3.7825293780        -0.6104198230         0.8766337420
H        3.9078429090         0.9357074690         0.0000000000

1.002_OH-O__aceticacid--acetamide_1.wfx

