%nprocs=4
%mem=2GB
#p hf aug-cc-pvdz output=wfx scf=(conver=6) int=(grid=ultrafine)

title

0 1
  C   -2.441198890   0.033254533  -0.124921211
  O   -1.931573044  -0.950144385  -0.613235076
  O   -1.748098619   1.022211060   0.441888845
  H   -0.779806185   0.838827019   0.382471585
  C   -3.923988576   0.287688186  -0.084149840
  H   -4.454363731  -0.547613916  -0.527712971
  H   -4.246359137   0.432903241   0.945966783
  H   -4.153250205   1.204469398  -0.626043796
  H    3.844879202   1.603678279   0.418778826
  H    4.928287390   0.771992259  -0.733105449
  H    3.368225239   1.448402861  -1.281377180
  H    0.533917200  -1.807196941  -0.001477206
  C    2.034300546  -0.329898654   0.171692057
  O    3.321397543  -0.320311533  -0.183554165
  C    3.897272409   0.968530293  -0.461954942
  C    1.515654662  -1.704124397   0.456450058
  O    1.382339275   0.691486104   0.259595626
  H    1.390682860  -1.805855291   1.535118880
  H    2.200114814  -2.468978510   0.105042474

1.009_OH-O__aceticacid--methylacetate_125.wfx

