%nprocs=4
%mem=2GB
#p hf aug-cc-pvdz output=wfx scf=(conver=6) int=(grid=ultrafine)

title

0 1
  C   -1.676709350  -0.155545695   0.000000000
  O   -0.993533620  -1.155786393   0.000000000
  O   -1.173945330   1.080177302   0.000000000
  H   -0.185940107   1.035554940   0.000000000
  C   -3.180974158  -0.156065960   0.000000000
  H   -3.550265591  -1.175547772   0.000000000
  H   -3.549007807   0.375205388  -0.876744631
  H   -3.549007807   0.375205388   0.876744631
  H    3.383761724  -1.055043540   0.874204506
  H    3.383761724  -1.055043540  -0.874204506
  H    3.718704767   0.468297407   0.000000000
  H    0.988329779  -1.029137346   0.000000000
  C    3.136216068  -0.448605116   0.000000000
  C    1.671111111  -0.165449778   0.000000000
  O    1.206475663   0.955451962   0.000000000

1.001_OH-O__aceticacid--acetaldehyde_080.wfx

