%nprocs=4
%mem=2GB
#p hf aug-cc-pvdz output=wfx scf=(conver=6) int=(grid=ultrafine)

title

0 1
  C   -1.202626030  -0.080733881   0.001350480
  O   -0.611284810  -1.138047894   0.102443058
  O   -0.600049589   1.105867986   0.083328024
  H    0.366456693   0.954392657   0.237092681
  C   -2.682044803   0.036750991  -0.224321922
  H   -3.120790513  -0.949724025  -0.323201190
  H   -3.136152092   0.564136745   0.613777977
  H   -2.873672517   0.626809518  -1.119219604
  O    3.326728055  -0.841733155   0.756264371
  H    2.741948279  -1.614956790   0.680672647
  C    4.354736494  -0.919527288  -0.226544548
  H    4.940744175  -0.006826077  -0.155613848
  H    5.010890040  -1.771855345  -0.042496823
  H    3.943518145  -0.997692255  -1.235721884

1.008_OH-O__aceticacid--methanol_200.wfx

