%nprocs=4
%mem=2GB
#p hf aug-cc-pvdz output=wfx scf=(conver=6) int=(grid=ultrafine)

title

0 1
  C   -1.202626030  -0.080733881   0.001350480
  O   -0.611284810  -1.138047894   0.102443058
  O   -0.600049589   1.105867986   0.083328024
  H    0.366456693   0.954392657   0.237092681
  C   -2.682044803   0.036750991  -0.224321922
  H   -3.120790513  -0.949724025  -0.323201190
  H   -3.136152092   0.564136745   0.613777977
  H   -2.873672517   0.626809518  -1.119219604
  O    2.586660214  -0.392701702   0.626471448
  H    2.001880438  -1.165925337   0.550879724
  C    3.614668654  -0.470495835  -0.356337470
  H    4.200676334   0.442205376  -0.285406770
  H    4.270822200  -1.322823892  -0.172289746
  H    3.203450304  -0.548660802  -1.365514806

1.008_OH-O__aceticacid--methanol_150.wfx

