%nprocs=4
%mem=2GB
#p hf aug-cc-pvdz output=wfx scf=(conver=6) int=(grid=ultrafine)

title

0 1
  C   -1.676709350  -0.155545695   0.000000000
  O   -0.993533620  -1.155786393   0.000000000
  O   -1.173945330   1.080177302   0.000000000
  H   -0.185940107   1.035554940   0.000000000
  C   -3.180974158  -0.156065960   0.000000000
  H   -3.550265591  -1.175547772   0.000000000
  H   -3.549007807   0.375205388  -0.876744631
  H   -3.549007807   0.375205388   0.876744631
  H    3.731865666  -1.075069284   0.874204506
  H    3.731865666  -1.075069284  -0.874204506
  H    4.066808709   0.448271663   0.000000000
  H    1.336433721  -1.049163090   0.000000000
  C    3.484320010  -0.468630860   0.000000000
  C    2.019215053  -0.185475522   0.000000000
  O    1.554579605   0.935426218   0.000000000

1.001_OH-O__aceticacid--acetaldehyde_100.wfx

