%nprocs=4
%mem=2GB
#p hf aug-cc-pvdz output=wfx scf=(conver=6) int=(grid=ultrafine)

title

0 1
  C   -1.676709350  -0.155545695   0.000000000
  O   -0.993533620  -1.155786393   0.000000000
  O   -1.173945330   1.080177302   0.000000000
  H   -0.185940107   1.035554940   0.000000000
  C   -3.180974158  -0.156065960   0.000000000
  H   -3.550265591  -1.175547772   0.000000000
  H   -3.549007807   0.375205388  -0.876744631
  H   -3.549007807   0.375205388   0.876744631
  H    4.166995594  -1.100101464   0.874204506
  H    4.166995594  -1.100101464  -0.874204506
  H    4.501938637   0.423239482   0.000000000
  H    1.771563649  -1.074195270   0.000000000
  C    3.919449938  -0.493663040   0.000000000
  C    2.454344981  -0.210507702   0.000000000
  O    1.989709533   0.910394038   0.000000000

1.001_OH-O__aceticacid--acetaldehyde_125.wfx

