%nprocs=4
%mem=2GB
#p hf aug-cc-pvdz output=wfx scf=(conver=6) int=(grid=ultrafine)

title

0 1
H        2.2536054540        -2.1392103080        -0.1388300120
C        1.3320434860        -1.6652400820         0.1985890290
H        0.4626386030        -2.1069776530        -0.2823028040
O        1.3000804680        -0.2994006930        -0.1988244590
H        1.2343452690        -1.7503353650         1.2801567000
O        2.3496784410         0.3883671240         0.5354665260
C        3.1953024510         0.9761894580        -0.4363567580
H        2.6488518220         1.6895896700        -1.0542976930
H        3.6651144770         0.2182520910        -1.0653658560
H        3.9550376480         1.4989922100         0.1428462490

1.006_OH-O__aceticacid--dimethylperoxide_2.wfx

