%nprocs=4
%mem=2GB
#p hf aug-cc-pvdz output=wfx scf=(conver=6) int=(grid=ultrafine)

title

0 1
  C   -1.676709350  -0.155545695   0.000000000
  O   -0.993533620  -1.155786393   0.000000000
  O   -1.173945330   1.080177302   0.000000000
  H   -0.185940107   1.035554940   0.000000000
  C   -3.180974158  -0.156065960   0.000000000
  H   -3.550265591  -1.175547772   0.000000000
  H   -3.549007807   0.375205388  -0.876744631
  H   -3.549007807   0.375205388   0.876744631
  H    5.472385378  -1.175198006   0.874204506
  H    5.472385378  -1.175198006  -0.874204506
  H    5.807328421   0.348142941   0.000000000
  H    3.076953433  -1.149291812   0.000000000
  C    5.224839722  -0.568759582   0.000000000
  C    3.759734765  -0.285604244   0.000000000
  O    3.295099317   0.835297496   0.000000000

1.001_OH-O__aceticacid--acetaldehyde_200.wfx

