%nprocs=4
%mem=2GB
#p hf aug-cc-pvdz output=wfx scf=(conver=6) int=(grid=ultrafine)

title

0 1
  C    2.365785395   0.096641088   0.000000000
  O    1.824082998   1.175372567   0.000000000
  O    1.689574610  -1.063821779   0.000000000
  H    0.733097141  -0.867785779   0.000000000
  C    3.852642959  -0.121110833   0.000000000
  H    4.364005600   0.834872993   0.000000000
  H    4.140093401  -0.699424225  -0.877065399
  H    4.140093401  -0.699424225   0.877065399
  H   -3.976046261  -0.661449150   0.000000000
  H   -2.940800349   1.870660213   0.000000000
  H   -1.783940914  -2.296697512   0.000000000
  H   -0.214935489   1.490310982   0.000000000
  C   -2.394329682   0.944956650   0.000000000
  C   -2.937800782  -0.382404662   0.000000000
  C   -1.883337572  -1.227901170   0.000000000
  O   -0.716699078  -0.514988570   0.000000000
  C   -1.048911610   0.813691237   0.000000000

1.007_OH-O__aceticacid--furan_080.wfx

