%nprocs=4
%mem=2GB
#p hf aug-cc-pvdz output=wfx scf=(conver=6) int=(grid=ultrafine)

title

0 1
  C    2.365785395   0.096641088   0.000000000
  O    1.824082998   1.175372567   0.000000000
  O    1.689574610  -1.063821779   0.000000000
  H    0.733097141  -0.867785779   0.000000000
  C    3.852642959  -0.121110833   0.000000000
  H    4.364005600   0.834872993   0.000000000
  H    4.140093401  -0.699424225  -0.877065399
  H    4.140093401  -0.699424225   0.877065399
  H   -4.519719843  -0.529150197   0.000000000
  H   -3.484473931   2.002959166   0.000000000
  H   -2.327614496  -2.164398559   0.000000000
  H   -0.758609071   1.622609935   0.000000000
  C   -2.938003264   1.077255603   0.000000000
  C   -3.481474364  -0.250105709   0.000000000
  C   -2.427011154  -1.095602217   0.000000000
  O   -1.260372660  -0.382689617   0.000000000
  C   -1.592585192   0.945990190   0.000000000

1.007_OH-O__aceticacid--furan_110.wfx

