%nprocs=4
%mem=2GB
#p hf aug-cc-pvdz output=wfx scf=(conver=6) int=(grid=ultrafine)

title

0 1
O        1.8465923740         0.0563297510         0.4966785260
C        2.8746008130        -0.0214643820        -0.4861303930
H        1.2618125980        -0.7168938840         0.4210868020
H        2.4633824640        -0.0996293490        -1.4953077290
H        3.5307543590        -0.8737924390        -0.3020826680
H        3.4606084940         0.8912368290        -0.4151996930

1.008_OH-O__aceticacid--methanol_2.wfx

