%nprocs=4
%mem=2GB
#p hf aug-cc-pvdz output=wfx scf=(conver=6) int=(grid=ultrafine)

title

0 1
C       -2.0967379830         0.0096074170        -0.1887140700
C       -3.5315829040        -0.2525747070        -0.5554281580
O       -1.1648625140        -0.1019569830        -0.9555872640
O       -1.9651091780         0.3798517520         1.0860668770
H       -3.6012197720        -0.5294746960        -1.6015123750
H       -3.9285853340        -1.0517068790         0.0694029080
H       -4.1307920130         0.6359068470        -0.3615052730
H       -1.0127232680         0.5345436060         1.2847681250

1.004_OH-O__aceticacid--dimethylcarbonate_1.wfx

