%nprocs=4
%mem=2GB
#p hf aug-cc-pvdz output=wfx scf=(conver=6) int=(grid=ultrafine)

title

0 1
H       -4.3384953160        -0.5732498480         0.0000000000
C       -3.3002498370        -0.2942053600         0.0000000000
C       -2.2457866270        -1.1397018680         0.0000000000
C       -2.7567787370         1.0331559520         0.0000000000
O       -1.0791481330        -0.4267892680         0.0000000000
H       -2.1463899690        -2.2084982100         0.0000000000
H       -3.3032494040         1.9588595150         0.0000000000
C       -1.4113606650         0.9018905390         0.0000000000
H       -0.5773845440         1.5785102840         0.0000000000

1.007_OH-O__aceticacid--furan_2.wfx

