%nprocs=4
%mem=2GB
#p hf aug-cc-pvdz output=wfx scf=(conver=6) int=(grid=ultrafine)

title

0 1
  C    2.088996400   0.053952526   0.000000000
  O    1.727947658  -1.098490085   0.000000000
  O    1.229310109   1.087221194   0.000000000
  H    0.324001586   0.732778241   0.000000000
  C    3.517859214   0.513045574   0.000000000
  H    4.179691850  -0.345480947   0.000000000
  H    3.705216031   1.131234327   0.876881860
  H    3.705216031   1.131234327  -0.876881860
  H   -2.150154909  -2.055159504  -0.895853265
  H   -2.150154909  -2.055159504   0.895853265
  H   -0.593573725  -1.999331996   0.000000000
  C   -1.638583093  -1.715985234   0.000000000
  O   -1.618324314  -0.245686648   0.000000000
  C   -2.768306418   0.331476724   0.000000000
  N   -3.782778577   0.881187740   0.000000000

1.010_OH-O__aceticacid--methylcyanate_110.wfx

