%nprocs=4
%mem=2GB
#p hf aug-cc-pvdz output=wfx scf=(conver=6) int=(grid=ultrafine)

title

0 1
  O    2.086138680   0.036875492  -0.640328801
  H    1.254507692   0.488108996  -0.419264519
  C    2.896636269   0.005598133   0.516670310
  H    3.809307845  -0.533808290   0.268209454
  H    2.409354595  -0.513671280   1.349953454
  H    3.173247693   1.009378863   0.854756922
  H   -3.038900179  -0.513930547  -0.036950513
  H   -2.676799443   1.177784101   0.015731822
  H    0.303997208  -1.577862418  -0.621048813
  H   -1.387218121  -2.124611852  -0.464041487
  H   -0.414480424  -1.782364955   0.971143963
  O   -0.216122441   0.894437199  -0.031918774
  C   -1.028336343  -0.019866732  -0.043588661
  N   -2.361346805   0.224054563  -0.016984764
  C   -0.617360083  -1.473442395  -0.054938915

1.016_OH-O__methanol--acetamide_085.wfx

