%nprocs=4
%mem=2GB
#p hf aug-cc-pvdz output=wfx scf=(conver=6) int=(grid=ultrafine)

title

0 1
C       -2.3712704120         0.0469596000        -0.1625951430
C       -3.8593805820         0.2799788730        -0.1296113820
O       -1.8419780590        -0.8557404250        -0.7744333210
O       -1.7083733730         0.9469768210         0.5575890850
H       -4.3678562020        -0.4924417430        -0.6961058480
H       -4.0855348040         1.2591566290        -0.5502310610
H       -4.2112357550         0.2831674670         0.9010950920
H       -0.7256322030         0.7950254760         0.4999353380

1.013_OH-O__aceticacid--Nmethylacetamide_1.wfx

