%nprocs=4
%mem=2GB
#p hf aug-cc-pvdz output=wfx scf=(conver=6) int=(grid=ultrafine)

title

0 1
  O   -2.080722411   0.374743458  -0.277017255
  H   -1.318026211  -0.220847417  -0.258404267
  C   -3.208308312  -0.296934856   0.253406800
  H   -4.042554777   0.401947625   0.239673618
  H   -3.484170341  -1.171366492  -0.343950304
  H   -3.047691552  -0.619156781   1.287120547
  H    2.326606049  -1.215782473  -0.002907590
  H   -0.334392256   1.760865242   0.063390081
  H    1.220089717   1.955822564   0.924575240
  H    1.184851456   2.019883060  -0.828154743
  O    0.102211635  -0.776536644  -0.152454909
  C    0.956189125   0.070057818  -0.026855318
  O    2.261471829  -0.252547166   0.060006887
  C    0.728942088   1.548792353   0.042431815

1.017_OH-O__methanol--aceticacid_080.wfx

