%nprocs=4
%mem=2GB
#p hf aug-cc-pvdz output=wfx scf=(conver=6) int=(grid=ultrafine)

title

0 1
  O    2.818185101  -0.247435532   0.056821956
  H    1.976071503   0.189051577  -0.132132208
  C    3.827908763   0.736443657   0.184968213
  H    4.760728625   0.221949473   0.408679829
  H    3.618208013   1.437366735   0.998851321
  H    3.963948514   1.308008368  -0.738251908
  H   -3.951730834  -0.166063091  -0.593488958
  H   -3.665224076   0.001479090   1.153048616
  H   -4.413748843   1.337630165   0.242840450
  H    0.323804449  -1.506226181   0.639223938
  H    0.048750119  -1.628707489  -1.105904878
  H   -0.795114288  -2.746086414   0.002455568
  O   -2.432275986   1.163167912  -0.065366838
  C   -1.328622797   0.428089349  -0.176478970
  O   -0.257413741   0.930474713  -0.405325276
  O   -1.557845122  -0.876683011  -0.011838766
  C   -0.408523992  -1.741681419  -0.127021492
  C   -3.693442783   0.527966232   0.202380964

1.019_OH-O__methanol--dimethylcarbonate_125.wfx

