%nprocs=4
%mem=2GB
#p hf aug-cc-pvdz output=wfx scf=(conver=6) int=(grid=ultrafine)

title

0 1
H        2.6816655110        -1.3547047800         0.0235797490
O        2.6165312910        -0.3914694730         0.0864942260
C        1.3112485870        -0.0688644890        -0.0003679790
O        0.4572710970        -0.9154589510        -0.1259675700
C        1.0840015500         1.4098700460         0.0689191540
H        1.5399109180         1.8809607530        -0.8016674040
H        1.5751491790         1.8169002570         0.9510625790
H        0.0206672060         1.6219429350         0.0898774200

1.017_OH-O__methanol--aceticacid_2.wfx

