%nprocs=4
%mem=2GB
#p hf aug-cc-pvdz output=wfx scf=(conver=6) int=(grid=ultrafine)

title

0 1
  O    1.469321090  -0.481309455   0.000000000
  H    0.791535506   0.209758574   0.000000000
  C    2.752614712   0.116432450   0.000000000
  H    3.487671960  -0.686242312   0.000000000
  H    2.919026064   0.733550505   0.888318259
  H    2.919026064   0.733550505  -0.888318259
  H   -4.029246964  -0.586658982   0.874460917
  H   -4.029246964  -0.586658982  -0.874460917
  H   -2.468923387  -0.573930582   0.000000000
  H   -4.569355515   1.720047129   0.000000000
  C   -3.492637332  -0.210910044   0.000000000
  C   -3.552740616   1.282737502   0.000000000
  O   -2.594261614   2.018032090   0.000000000

1.015_OH-O__methanol--acetaldehyde_200.wfx

