%nprocs=4
%mem=2GB
#p hf aug-cc-pvdz output=wfx scf=(conver=6) int=(grid=ultrafine)

title

0 1
  O    1.469321090  -0.481309455   0.000000000
  H    0.791535506   0.209758574   0.000000000
  C    2.752614712   0.116432450   0.000000000
  H    3.487671960  -0.686242312   0.000000000
  H    2.919026064   0.733550505   0.888318259
  H    2.919026064   0.733550505  -0.888318259
  H   -2.420993332  -1.445588902   0.874460917
  H   -2.420993332  -1.445588902  -0.874460917
  H   -0.860669755  -1.432860502   0.000000000
  H   -2.961101883   0.861117209   0.000000000
  C   -1.884383700  -1.069839964   0.000000000
  C   -1.944486984   0.423807582   0.000000000
  O   -0.986007982   1.159102170   0.000000000

1.015_OH-O__methanol--acetaldehyde_105.wfx

