%nprocs=4
%mem=2GB
#p hf aug-cc-pvdz output=wfx scf=(conver=6) int=(grid=ultrafine)

title

0 1
  O    1.469321090  -0.481309455   0.000000000
  H    0.791535506   0.209758574   0.000000000
  C    2.752614712   0.116432450   0.000000000
  H    3.487671960  -0.686242312   0.000000000
  H    2.919026064   0.733550505   0.888318259
  H    2.919026064   0.733550505  -0.888318259
  H   -2.336348404  -1.490795740   0.874460917
  H   -2.336348404  -1.490795740  -0.874460917
  H   -0.776024827  -1.478067340   0.000000000
  H   -2.876456955   0.815910371   0.000000000
  C   -1.799738772  -1.115046802   0.000000000
  C   -1.859842056   0.378600744   0.000000000
  O   -0.901363054   1.113895332   0.000000000

1.015_OH-O__methanol--acetaldehyde_100.wfx

