%nprocs=4
%mem=2GB
#p hf aug-cc-pvdz output=wfx scf=(conver=6) int=(grid=ultrafine)

title

0 1
  O    1.469321090  -0.481309455   0.000000000
  H    0.791535506   0.209758574   0.000000000
  C    2.752614712   0.116432450   0.000000000
  H    3.487671960  -0.686242312   0.000000000
  H    2.919026064   0.733550505   0.888318259
  H    2.919026064   0.733550505  -0.888318259
  H   -2.082413620  -1.626416254   0.874460917
  H   -2.082413620  -1.626416254  -0.874460917
  H   -0.522090043  -1.613687854   0.000000000
  H   -2.622522171   0.680289857   0.000000000
  C   -1.545803988  -1.250667316   0.000000000
  C   -1.605907272   0.242980230   0.000000000
  O   -0.647428270   0.978274818   0.000000000

1.015_OH-O__methanol--acetaldehyde_085.wfx

