%nprocs=4
%mem=2GB
#p hf aug-cc-pvdz output=wfx scf=(conver=6) int=(grid=ultrafine)

title

0 1
  O    2.086138680   0.036875492  -0.640328801
  H    1.254507692   0.488108996  -0.419264519
  C    2.896636269   0.005598133   0.516670310
  H    3.809307845  -0.533808290   0.268209454
  H    2.409354595  -0.513671280   1.349953454
  H    3.173247693   1.009378863   0.854756922
  H   -5.028576242   0.035807610   0.487105496
  H   -4.666475506   1.727522258   0.539787831
  H   -1.685678855  -1.028124261  -0.096992804
  H   -3.376894184  -1.574873695   0.060014522
  H   -2.404156487  -1.232626798   1.495199972
  O   -2.205798504   1.444175356   0.492137235
  C   -3.018012406   0.529871425   0.480467348
  N   -4.351022868   0.773792720   0.507071245
  C   -2.607036146  -0.923704238   0.469117094

1.016_OH-O__methanol--acetamide_200.wfx

