%nprocs=4
%mem=2GB
#p hf aug-cc-pvdz output=wfx scf=(conver=6) int=(grid=ultrafine)

title

0 1
  C   -1.659190287  -0.119450623   0.000000000
  O   -1.072471591  -1.175652992   0.000000000
  O   -1.034427547   1.066927484   0.000000000
  H   -0.067450189   0.922997638   0.000000000
  C   -3.153992278   0.033344436   0.000000000
  H   -3.623728262  -0.943769326   0.000000000
  H   -3.465943175   0.599065081  -0.876891846
  H   -3.465943175   0.599065081   0.876891846
  H    2.581663792  -1.632534065   0.874575483
  H    1.032684124  -1.291305669   0.000000000
  H    2.581663792  -1.632534065  -0.874575483
  C    2.114763940  -1.174884691   0.000000000
  N    2.544159436   0.229180988   0.000000000
  O    1.647706276   1.033133463   0.000000000

1.012_OH-O__aceticacid--nitrosomethane_090.wfx

