%nprocs=4
%mem=2GB
#p hf aug-cc-pvdz output=wfx scf=(conver=6) int=(grid=ultrafine)

title

0 1
  O   -2.078218400  -0.406636970   0.220658442
  H   -1.287163445   0.153861844   0.226683253
  C   -3.184467993   0.356925802  -0.220588799
  H   -4.052691539  -0.299619987  -0.235464679
  H   -3.036726222   0.752119841  -1.230877149
  H   -3.400403579   1.194407390   0.450288533
  H    1.586504832  -1.848099561   0.840521213
  H    0.141580288  -1.598333028  -0.161141444
  H    1.752945692  -1.820382984  -0.902804322
  H    2.951352910   1.627794516   0.096910854
  H    3.506600752   0.011303138   0.611746339
  C    1.201814576  -1.382974276  -0.069820710
  C    1.447884646   0.102496588   0.003123219
  O    0.543276996   0.901379431   0.136778302
  C    2.881260942   0.561192417  -0.092455214
  H    3.264204564   0.342731353  -1.091243154

1.018_OH-O__methanol--acetone_105.wfx

