%nprocs=4
%mem=2GB
#p hf aug-cc-pvdz output=wfx scf=(conver=6) int=(grid=ultrafine)

title

0 1
O        1.4693210900        -0.4813094550         0.0000000000
C        2.7526147120         0.1164324500         0.0000000000
H        0.7915355060         0.2097585740         0.0000000000
H        2.9190260640         0.7335505050        -0.8883182590
H        2.9190260640         0.7335505050         0.8883182590
H        3.4876719600        -0.6862423120         0.0000000000

1.015_OH-O__methanol--acetaldehyde_1.wfx

