%nprocs=4
%mem=2GB
#p hf aug-cc-pvdz output=wfx scf=(conver=6) int=(grid=ultrafine)

title

0 1
  C    2.088996400   0.053952526   0.000000000
  O    1.727947658  -1.098490085   0.000000000
  O    1.229310109   1.087221194   0.000000000
  H    0.324001586   0.732778241   0.000000000
  C    3.517859214   0.513045574   0.000000000
  H    4.179691850  -0.345480947   0.000000000
  H    3.705216031   1.131234327   0.876881860
  H    3.705216031   1.131234327  -0.876881860
  H   -2.856455236  -2.410964918  -0.895853265
  H   -2.856455236  -2.410964918   0.895853265
  H   -1.299874052  -2.355137410   0.000000000
  C   -2.344883420  -2.071790648   0.000000000
  O   -2.324624641  -0.601492062   0.000000000
  C   -3.474606745  -0.024328690   0.000000000
  N   -4.489078904   0.525382326   0.000000000

1.010_OH-O__aceticacid--methylcyanate_150.wfx

