%nprocs=4
%mem=2GB
#p hf aug-cc-pvdz output=wfx scf=(conver=6) int=(grid=ultrafine)

title

0 1
O        2.4207055220         0.0326880490        -0.0593504500
H        1.8130586380        -0.7277004860        -0.0126051750
H        3.0299731050        -0.0548341800         0.6771859160

1.014_OH-O__aceticacid--water_2.wfx

