%nprocs=4
%mem=2GB
#p hf aug-cc-pvdz output=wfx scf=(conver=6) int=(grid=ultrafine)

title

0 1
  C   -1.659190287  -0.119450623   0.000000000
  O   -1.072471591  -1.175652992   0.000000000
  O   -1.034427547   1.066927484   0.000000000
  H   -0.067450189   0.922997638   0.000000000
  C   -3.153992278   0.033344436   0.000000000
  H   -3.623728262  -0.943769326   0.000000000
  H   -3.465943175   0.599065081  -0.876891846
  H   -3.465943175   0.599065081   0.876891846
  H    3.725101436  -1.559110182   0.874575483
  H    2.176121768  -1.217881786   0.000000000
  H    3.725101436  -1.559110182  -0.874575483
  C    3.258201584  -1.101460808   0.000000000
  N    3.687597080   0.302604872   0.000000000
  O    2.791143918   1.106557346   0.000000000

1.012_OH-O__aceticacid--nitrosomethane_150.wfx

