%nprocs=4
%mem=2GB
#p hf aug-cc-pvdz output=wfx scf=(conver=6) int=(grid=ultrafine)

title

0 1
  O    1.469321090  -0.481309455   0.000000000
  H    0.791535506   0.209758574   0.000000000
  C    2.752614712   0.116432450   0.000000000
  H    3.487671960  -0.686242312   0.000000000
  H    2.919026064   0.733550505   0.888318259
  H    2.919026064   0.733550505  -0.888318259
  H   -3.182797684  -1.038727361   0.874460917
  H   -3.182797684  -1.038727361  -0.874460917
  H   -1.622474107  -1.025998961   0.000000000
  H   -3.722906235   1.267978750   0.000000000
  C   -2.646188052  -0.662978423   0.000000000
  C   -2.706291336   0.830669123   0.000000000
  O   -1.747812334   1.565963711   0.000000000

1.015_OH-O__methanol--acetaldehyde_150.wfx

