%nprocs=4
%mem=2GB
#p hf aug-cc-pvdz output=wfx scf=(conver=6) int=(grid=ultrafine)

title

0 1
O       -2.0782184000        -0.4066369700         0.2206584420
C       -3.1844679930         0.3569258020        -0.2205887990
H       -1.2871634450         0.1538618440         0.2266832530
H       -4.0526915390        -0.2996199870        -0.2354646790
H       -3.0367262220         0.7521198410        -1.2308771490
H       -3.4004035790         1.1944073900         0.4502885330

1.018_OH-O__methanol--acetone_1.wfx

