%nprocs=4
%mem=2GB
#p hf aug-cc-pvdz output=wfx scf=(conver=6) int=(grid=ultrafine)

title

0 1
  O   -1.802011968  -0.000000000  -0.688378608
  H   -0.834188154  -0.000000000  -0.711767154
  C   -2.204332885   0.000000000   0.666225878
  H   -3.292570662   0.000000000   0.687767035
  H   -1.854075447  -0.888292493   1.203850689
  H   -1.854075447   0.888292493   1.203850689
  H    1.162507627  -2.022138578  -0.293468099
  H    2.711806234  -1.238121782   0.092852947
  H    1.386574727  -1.226126908   1.281583341
  H    1.162507627   2.022138578  -0.293468099
  H    2.711806234   1.238121782   0.092852947
  H    1.386574727   1.226126908   1.281583341
  C    1.625970955  -1.180750345   0.214271238
  O    1.113338589   0.000000000  -0.373440250
  C    1.625970955   1.180750345   0.214271238

1.020_OH-O__methanol--dimethylether_105.wfx

