%nprocs=4
%mem=2GB
#p hf aug-cc-pvdz output=wfx scf=(conver=6) int=(grid=ultrafine)

title

0 1
  O    2.388680733   0.327663734   0.000000000
  H    1.537962776  -0.132351328   0.000000000
  C    3.428661986  -0.632073870   0.000000000
  H    4.373781030  -0.091970573   0.000000000
  H    3.399035303  -1.271319579  -0.888004961
  H    3.399035303  -1.271319579   0.888004961
  H   -0.057367044   1.584859811   0.884415489
  H   -1.097782027   2.735296901   0.000000000
  H   -0.057367044   1.584859811  -0.884415489
  H   -3.373039014  -1.058507431  -0.877420088
  C   -1.519972124  -0.468755008   0.000000000
  O   -1.794763807   0.838944566   0.000000000
  C   -0.669223357   1.739705716   0.000000000
  C   -2.773556523  -1.296208955   0.000000000
  O   -0.398019789  -0.921746322   0.000000000
  H   -2.515419838  -2.349232295   0.000000000
  H   -3.373039014  -1.058507431   0.877420088

1.024_OH-O__methanol--methylacetate_110.wfx

