%nprocs=4
%mem=2GB
#p hf aug-cc-pvdz output=wfx scf=(conver=6) int=(grid=ultrafine)

title

0 1
  O   -2.330700249   0.328801354   0.000000000
  H   -1.463543736  -0.108509401   0.000000000
  C   -3.337457861  -0.662813388   0.000000000
  H   -4.301785995  -0.156616591   0.000000000
  H   -3.286887585  -1.302362372   0.887444105
  H   -3.286887585  -1.302362372  -0.887444105
  C    4.242405990  -2.033791758   0.000000000
  H    4.206047539  -2.676177687   0.877773548
  H    4.206047539  -2.676177687  -0.877773548
  H    5.179904690  -1.481407612   0.000000000
  C    3.018852286  -1.146589502   0.000000000
  O    1.889961634  -1.625200885   0.000000000
  N    3.240744845   0.184374123   0.000000000
  H    4.188111897   0.512756689   0.000000000
  C    2.158169992   1.156483233   0.000000000
  H    1.526779076   1.037270272   0.878062348
  H    1.526779076   1.037270272  -0.878062348
  H    2.588257382   2.153751128   0.000000000

1.027_OH-O__methanol--Nmethylacetamide_200.wfx

