%nprocs=4
%mem=2GB
#p hf aug-cc-pvdz output=wfx scf=(conver=6) int=(grid=ultrafine)

title

0 1
  O   -2.033801120  -0.367838982   0.143631812
  H   -1.354642634   0.288948179   0.339232156
  C   -3.222112874   0.288656615  -0.270899880
  H   -3.953989435  -0.482557613  -0.500340226
  H   -3.063664480   0.893437237  -1.167950974
  H   -3.629650024   0.927772303   0.516891414
  H    0.166731960  -1.360620015  -0.302573276
  H    1.212223592  -1.573414709   1.114657370
  H    1.901481598  -1.843639689  -0.513776760
  C    1.183403174  -1.281344911   0.068181049
  N    1.582535702   0.159838752   0.021000846
  O    0.747213908   0.984690073   0.371324259
  O    2.710036040   0.428180984  -0.337657910

1.025_OH-O__methanol--nitromethane_110.wfx

