%nprocs=4
%mem=2GB
#p hf aug-cc-pvdz output=wfx scf=(conver=6) int=(grid=ultrafine)

title

0 1
H        0.1186313710         1.6566229920         0.8844154890
C       -0.4932249420         1.8114688970         0.0000000000
H        0.1186313710         1.6566229920        -0.8844154890
H       -0.9217836120         2.8070600820         0.0000000000
O       -1.6187653920         0.9107077470         0.0000000000
C       -1.3439737090        -0.3969918270         0.0000000000
C       -2.5975581080        -1.2244457740         0.0000000000
O       -0.2220213740        -0.8499831410         0.0000000000
H       -3.1970405990        -0.9867442500        -0.8774200880
H       -3.1970405990        -0.9867442500         0.8774200880
H       -2.3394214230        -2.2774691140         0.0000000000

1.024_OH-O__methanol--methylacetate_2.wfx

