%nprocs=4
%mem=2GB
#p hf aug-cc-pvdz output=wfx scf=(conver=6) int=(grid=ultrafine)

title

0 1
  O    1.943856003   0.020042468   0.695762285
  H    1.014176701   0.278639079   0.728559625
  C    2.381283054   0.110339895  -0.648868141
  H    3.406576357  -0.252587687  -0.683659435
  H    2.371762939   1.141818929  -1.016466769
  H    1.772170879  -0.501534601  -1.320500062
  H   -2.516159598   1.645687594  -0.368811810
  H   -1.271850977   2.464117160   0.616887219
  H   -0.882671836   1.927290189  -1.038847516
  H   -1.258624448  -2.519744302  -0.649624146
  H   -1.905384357  -1.855809463   0.875565531
  H   -0.137492236  -1.891575893   0.586257134
  C   -1.452343041   1.699813742  -0.136710898
  O   -1.005272954   0.495571228   0.455533515
  O   -1.206795637  -0.534572027  -0.563029999
  C   -1.118327467  -1.768130791   0.125318620

1.021_OH-O__methanol--dimethylperoxide_105.wfx

