%nprocs=4
%mem=2GB
#p hf aug-cc-pvdz output=wfx scf=(conver=6) int=(grid=ultrafine)

title

0 1
  O    1.314820958  -0.412457918  -0.489820465
  H    0.450880825   0.014371030  -0.399320006
  C    2.216978094   0.189483065   0.418542323
  H    3.175611578  -0.315213487   0.312205478
  H    1.889448906   0.084861602   1.458255496
  H    2.366309090   1.253907523   0.209865811
  O   -1.229119271   0.595703593  -0.161493632
  H   -1.619835693   1.007329726  -0.935461602
  C   -2.053710329  -0.491173964   0.263273831
  H   -1.557184232  -0.942767207   1.117309329
  H   -2.159121727  -1.245802657  -0.517931212
  H   -3.041138750  -0.143081729   0.571129054

1.023_OH-O__methanol--methanol_095.wfx

