%nprocs=4
%mem=2GB
#p hf aug-cc-pvdz output=wfx scf=(conver=6) int=(grid=ultrafine)

title

0 1
  O   -2.330700249   0.328801354   0.000000000
  H   -1.463543736  -0.108509401   0.000000000
  C   -3.337457861  -0.662813388   0.000000000
  H   -4.301785995  -0.156616591   0.000000000
  H   -3.286887585  -1.302362372   0.887444105
  H   -3.286887585  -1.302362372  -0.887444105
  C    2.984841476  -1.465032452   0.000000000
  H    2.948483025  -2.107418380   0.877773548
  H    2.948483025  -2.107418380  -0.877773548
  H    3.922340176  -0.912648306   0.000000000
  C    1.761287772  -0.577830196   0.000000000
  O    0.632397120  -1.056441578   0.000000000
  N    1.983180331   0.753133430   0.000000000
  H    2.930547383   1.081515996   0.000000000
  C    0.900605478   1.725242540   0.000000000
  H    0.269214562   1.606029578   0.878062348
  H    0.269214562   1.606029578  -0.878062348
  H    1.330692868   2.722510434   0.000000000

1.027_OH-O__methanol--Nmethylacetamide_125.wfx

