%nprocs=4
%mem=2GB
#p hf aug-cc-pvdz output=wfx scf=(conver=6) int=(grid=ultrafine)

title

0 1
  O   -1.557072727   0.447227590   0.000000000
  H   -0.883414953  -0.243086785   0.000000000
  C   -2.846448442  -0.143949748   0.000000000
  H   -3.572929249   0.665717419   0.000000000
  H   -3.015623971  -0.758297651   0.888936421
  H   -3.015623971  -0.758297651  -0.888936421
  H    2.439983861   1.404983909   0.876008433
  H    2.439983861   1.404983909  -0.876008433
  H    0.865032468   1.263477629   0.000000000
  C    1.922738585   1.009741896   0.000000000
  N    2.169181830  -0.442333441   0.000000000
  O    1.177756511  -1.122765009   0.000000000

1.026_OH-O__methanol--nitrosomethane_110.wfx

