%nprocs=4
%mem=2GB
#p hf aug-cc-pvdz output=wfx scf=(conver=6) int=(grid=ultrafine)

title

0 1
  O    2.388680733   0.327663734   0.000000000
  H    1.537962776  -0.132351328   0.000000000
  C    3.428661986  -0.632073870   0.000000000
  H    4.373781030  -0.091970573   0.000000000
  H    3.399035303  -1.271319579  -0.888004961
  H    3.399035303  -1.271319579   0.888004961
  H   -1.641352779   0.938991179   0.884415489
  H   -2.681767762   2.089428269   0.000000000
  H   -1.641352779   0.938991179  -0.884415489
  H   -4.957024749  -1.704376063  -0.877420088
  C   -3.103957859  -1.114623640   0.000000000
  O   -3.378749542   0.193075934   0.000000000
  C   -2.253209092   1.093837084   0.000000000
  C   -4.357542258  -1.942077587   0.000000000
  O   -1.982005524  -1.567614954   0.000000000
  H   -4.099405573  -2.995100927   0.000000000
  H   -4.957024749  -1.704376063   0.877420088

1.024_OH-O__methanol--methylacetate_200.wfx

