%nprocs=4
%mem=2GB
#p hf aug-cc-pvdz output=wfx scf=(conver=6) int=(grid=ultrafine)

title

0 1
  O   -2.033801120  -0.367838982   0.143631812
  H   -1.354642634   0.288948179   0.339232156
  C   -3.222112874   0.288656615  -0.270899880
  H   -3.953989435  -0.482557613  -0.500340226
  H   -3.063664480   0.893437237  -1.167950974
  H   -3.629650024   0.927772303   0.516891414
  H    0.931043430  -1.107622962  -0.290903420
  H    1.976535062  -1.320417656   1.126327226
  H    2.665793068  -1.590642636  -0.502106904
  C    1.947714644  -1.028347858   0.079850904
  N    2.346847172   0.412835804   0.032670702
  O    1.511525378   1.237687126   0.382994114
  O    3.474347510   0.681178036  -0.325988054

1.025_OH-O__methanol--nitromethane_150.wfx

