%nprocs=4
%mem=2GB
#p hf aug-cc-pvdz output=wfx scf=(conver=6) int=(grid=ultrafine)

title

0 1
O       -0.7577234240         0.6408405970         0.0000000000
C       -1.6325562660        -0.4717439040         0.0000000000
H        0.1539128540         0.3205187660         0.0000000000
H       -1.5042084280        -1.0991800900        -0.8879931380
H       -1.5042084280        -1.0991800900         0.8879931380
H       -2.6506989170        -0.0868470360         0.0000000000

1.029_OH-O__methanol--water_1.wfx

