%nprocs=4
%mem=2GB
#p hf aug-cc-pvdz output=wfx scf=(conver=6) int=(grid=ultrafine)

title

0 1
  O   -1.802011968  -0.000000000  -0.688378608
  H   -0.834188154  -0.000000000  -0.711767154
  C   -2.204332885   0.000000000   0.666225878
  H   -3.292570662   0.000000000   0.687767035
  H   -1.854075447  -0.888292493   1.203850689
  H   -1.854075447   0.888292493   1.203850689
  H    1.533465102  -2.022138578  -0.229024879
  H    3.082763708  -1.238121782   0.157296167
  H    1.757532202  -1.226126908   1.346026561
  H    1.533465102   2.022138578  -0.229024879
  H    3.082763708   1.238121782   0.157296167
  H    1.757532202   1.226126908   1.346026561
  C    1.996928430  -1.180750345   0.278714458
  O    1.484296064   0.000000000  -0.308997030
  C    1.996928430   1.180750345   0.278714458

1.020_OH-O__methanol--dimethylether_125.wfx

