%nprocs=4
%mem=2GB
#p hf aug-cc-pvdz output=wfx scf=(conver=6) int=(grid=ultrafine)

title

0 1
  O   -1.557072727   0.447227590   0.000000000
  H   -0.883414953  -0.243086785   0.000000000
  C   -2.846448442  -0.143949748   0.000000000
  H   -3.572929249   0.665717419   0.000000000
  H   -3.015623971  -0.758297651   0.888936421
  H   -3.015623971  -0.758297651  -0.888936421
  H    1.971535801   1.604910778   0.876008433
  H    1.971535801   1.604910778  -0.876008433
  H    0.396584408   1.463404498   0.000000000
  C    1.454290525   1.209668765   0.000000000
  N    1.700733770  -0.242406572   0.000000000
  O    0.709308451  -0.922838140   0.000000000

1.026_OH-O__methanol--nitrosomethane_085.wfx

