%nprocs=4
%mem=2GB
#p hf aug-cc-pvdz output=wfx scf=(conver=6) int=(grid=ultrafine)

title

0 1
H        2.2526046370         1.4849546570         0.8760084330
C        1.7353593610         1.0897126440         0.0000000000
N        1.9818026060        -0.3623626930         0.0000000000
H        2.2526046370         1.4849546570        -0.8760084330
H        0.6776532440         1.3434483770         0.0000000000
O        0.9903772870        -1.0427942610         0.0000000000

1.026_OH-O__methanol--nitrosomethane_2.wfx

