%nprocs=4
%mem=2GB
#p hf aug-cc-pvdz output=wfx scf=(conver=6) int=(grid=ultrafine)

title

0 1
O       -2.3307002490         0.3288013540         0.0000000000
C       -3.3374578610        -0.6628133880         0.0000000000
H       -1.4635437360        -0.1085094010         0.0000000000
H       -3.2868875850        -1.3023623720        -0.8874441050
H       -3.2868875850        -1.3023623720         0.8874441050
H       -4.3017859950        -0.1566165910         0.0000000000

1.027_OH-O__methanol--Nmethylacetamide_1.wfx

