%nprocs=4
%mem=2GB
#p hf aug-cc-pvdz output=wfx scf=(conver=6) int=(grid=ultrafine)

title

0 1
  O   -1.557072727   0.447227590   0.000000000
  H   -0.883414953  -0.243086785   0.000000000
  C   -2.846448442  -0.143949748   0.000000000
  H   -3.572929249   0.665717419   0.000000000
  H   -3.015623971  -0.758297651   0.888936421
  H   -3.015623971  -0.758297651  -0.888936421
  H    2.252604637   1.484954657   0.876008433
  H    2.252604637   1.484954657  -0.876008433
  H    0.677653244   1.343448377   0.000000000
  C    1.735359361   1.089712644   0.000000000
  N    1.981802606  -0.362362693   0.000000000
  O    0.990377287  -1.042794261   0.000000000

1.026_OH-O__methanol--nitrosomethane_100.wfx

