%nprocs=4
%mem=2GB
#p hf aug-cc-pvdz output=wfx scf=(conver=6) int=(grid=ultrafine)

title

0 1
  O    2.388680733   0.327663734   0.000000000
  H    1.537962776  -0.132351328   0.000000000
  C    3.428661986  -0.632073870   0.000000000
  H    4.373781030  -0.091970573   0.000000000
  H    3.399035303  -1.271319579  -0.888004961
  H    3.399035303  -1.271319579   0.888004961
  H    0.030632163   1.620741401   0.884415489
  H   -1.009782820   2.771178491   0.000000000
  H    0.030632163   1.620741401  -0.884415489
  H   -3.285039806  -1.022625841  -0.877420088
  C   -1.431972916  -0.432873418   0.000000000
  O   -1.706764600   0.874826156   0.000000000
  C   -0.581224150   1.775587306   0.000000000
  C   -2.685557316  -1.260327365   0.000000000
  O   -0.310020582  -0.885864732   0.000000000
  H   -2.427420630  -2.313350705   0.000000000
  H   -3.285039806  -1.022625841   0.877420088

1.024_OH-O__methanol--methylacetate_105.wfx

