%nprocs=4
%mem=2GB
#p hf aug-cc-pvdz output=wfx scf=(conver=6) int=(grid=ultrafine)

title

0 1
  O   -0.757723424   0.640840597   0.000000000
  H    0.153912854   0.320518766   0.000000000
  C   -1.632556266  -0.471743904   0.000000000
  H   -2.650698917  -0.086847036   0.000000000
  H   -1.504208428  -1.099180090   0.887993138
  H   -1.504208428  -1.099180090  -0.887993138
  O    3.885623074  -0.694128596   0.000000000
  H    4.328850113  -0.317846084  -0.765134271
  H    4.328850113  -0.317846084   0.765134271

1.029_OH-O__methanol--water_200.wfx

