%nprocs=4
%mem=2GB
#p hf aug-cc-pvdz output=wfx scf=(conver=6) int=(grid=ultrafine)

title

0 1
  O    1.943856003   0.020042468   0.695762285
  H    1.014176701   0.278639079   0.728559625
  C    2.381283054   0.110339895  -0.648868141
  H    3.406576357  -0.252587687  -0.683659435
  H    2.371762939   1.141818929  -1.016466769
  H    1.772170879  -0.501534601  -1.320500062
  H   -2.323831060   1.625027390  -0.342809324
  H   -1.079522439   2.443456956   0.642889705
  H   -0.690343298   1.906629985  -1.012845030
  H   -1.066295910  -2.540404506  -0.623621660
  H   -1.713055819  -1.876469667   0.901568017
  H    0.054836302  -1.912236097   0.612259620
  C   -1.260014503   1.679153538  -0.110708412
  O   -0.812944416   0.474911024   0.481536001
  O   -1.014467099  -0.555232231  -0.537027513
  C   -0.925998929  -1.788790995   0.151321106

1.021_OH-O__methanol--dimethylperoxide_095.wfx

