%nprocs=4
%mem=2GB
#p hf aug-cc-pvdz output=wfx scf=(conver=6) int=(grid=ultrafine)

title

0 1
  O   -2.033801120  -0.367838982   0.143631812
  H   -1.354642634   0.288948179   0.339232156
  C   -3.222112874   0.288656615  -0.270899880
  H   -3.953989435  -0.482557613  -0.500340226
  H   -3.063664480   0.893437237  -1.167950974
  H   -3.629650024   0.927772303   0.516891414
  H    1.886432767  -0.791376647  -0.276316101
  H    2.931924400  -1.004171341   1.140914545
  H    3.621182405  -1.274396321  -0.487519585
  C    2.903103982  -0.712101543   0.094438224
  N    3.302236510   0.729082120   0.047258021
  O    2.466914716   1.553933441   0.397581434
  O    4.429736847   0.997424352  -0.311400735

1.025_OH-O__methanol--nitromethane_200.wfx

