%nprocs=4
%mem=2GB
#p hf aug-cc-pvdz output=wfx scf=(conver=6) int=(grid=ultrafine)

title

0 1
  O   -1.557072727   0.447227590   0.000000000
  H   -0.883414953  -0.243086785   0.000000000
  C   -2.846448442  -0.143949748   0.000000000
  H   -3.572929249   0.665717419   0.000000000
  H   -3.015623971  -0.758297651   0.888936421
  H   -3.015623971  -0.758297651  -0.888936421
  H    3.189500757   1.085100919   0.876008433
  H    3.189500757   1.085100919  -0.876008433
  H    1.614549364   0.943594639   0.000000000
  C    2.672255481   0.689858906   0.000000000
  N    2.918698726  -0.762216431   0.000000000
  O    1.927273407  -1.442647999   0.000000000

1.026_OH-O__methanol--nitrosomethane_150.wfx

