%nprocs=4
%mem=2GB
#p hf aug-cc-pvdz output=wfx scf=(conver=6) int=(grid=ultrafine)

title

0 1
O       -1.5570727270         0.4472275900         0.0000000000
C       -2.8464484420        -0.1439497480         0.0000000000
H       -0.8834149530        -0.2430867850         0.0000000000
H       -3.5729292490         0.6657174190         0.0000000000
H       -3.0156239710        -0.7582976510        -0.8889364210
H       -3.0156239710        -0.7582976510         0.8889364210

1.026_OH-O__methanol--nitrosomethane_1.wfx

