%nprocs=4
%mem=2GB
#p hf aug-cc-pvdz output=wfx scf=(conver=6) int=(grid=ultrafine)

title

0 1
  O   -2.330700249   0.328801354   0.000000000
  H   -1.463543736  -0.108509401   0.000000000
  C   -3.337457861  -0.662813388   0.000000000
  H   -4.301785995  -0.156616591   0.000000000
  H   -3.286887585  -1.302362372   0.887444105
  H   -3.286887585  -1.302362372  -0.887444105
  C    2.649490939  -1.313363303   0.000000000
  H    2.613132488  -1.955749232   0.877773548
  H    2.613132488  -1.955749232  -0.877773548
  H    3.586989639  -0.760979157   0.000000000
  C    1.425937235  -0.426161047   0.000000000
  O    0.297046583  -0.904772430   0.000000000
  N    1.647829794   0.904802578   0.000000000
  H    2.595196846   1.233185144   0.000000000
  C    0.565254941   1.876911688   0.000000000
  H   -0.066135975   1.757698727   0.878062348
  H   -0.066135975   1.757698727  -0.878062348
  H    0.995342331   2.874179583   0.000000000

1.027_OH-O__methanol--Nmethylacetamide_105.wfx

