%nprocs=4
%mem=2GB
#p hf aug-cc-pvdz output=wfx scf=(conver=6) int=(grid=ultrafine)

title

0 1
H        3.8639203700        -0.3254225030         1.7408671150
C        2.8555173030        -0.6795161070         1.5294909630
O        2.5503790700        -0.5214138210         0.1545313530
H        2.1306656960        -0.1546807520         2.1524863980
H        2.7880539520        -1.7510900000         1.7061335300
O        2.6114176030         0.9177332640        -0.0944105700
C        2.5366795010         1.0609105640        -1.5004032790
H        1.5916727860         0.6777723900        -1.8883805790
H        2.5900973770         2.1353283710        -1.6652472480
H        3.3757861280         0.5651715720        -1.9892884840

1.035_OH-O__phenol--dimethylperoxide_2.wfx

