%nprocs=4
%mem=2GB
#p hf aug-cc-pvdz output=wfx scf=(conver=6) int=(grid=ultrafine)

title

0 1
H        1.7503772340        -2.2267350610        -0.6626552510
C        1.7425311870        -1.1904888460        -0.3572783880
C        2.8393622520        -0.3692032070        -0.5689149370
C        0.6017623290        -0.6818060200         0.2623610780
C        2.8162934400         0.9642793000        -0.1724220810
H        3.7193487190        -0.7743883930        -1.0488716710
O       -0.4480466360        -1.5229752600         0.4439244040
C        0.5743354310         0.6528996370         0.6686022700
C        1.6790161560         1.4659671750         0.4470947120
H        3.6733640290         1.5997951100        -0.3400026030
H       -1.2273157050        -1.0316848140         0.7573432150
H       -0.3020967090         1.0423772870         1.1669568050
H        1.6487632200         2.4978143240         0.7689146770

1.030_OH-O__phenol--acetaldehyde_1.wfx

