%nprocs=4
%mem=2GB
#p hf aug-cc-pvdz output=wfx scf=(conver=6) int=(grid=ultrafine)

title

0 1
H       -1.9607310590         2.3014995270        -0.4222892370
C       -1.9607174670         1.2409851940        -0.2162496320
C       -3.1387676280         0.5099414910        -0.2044698680
C       -0.7457618900         0.6067140720         0.0401772220
C       -3.1258084660        -0.8560449490         0.0597669740
H       -4.0752506890         1.0118714110        -0.4047905890
C       -0.7259635310        -0.7623874060         0.3109610720
O        0.3816106770         1.3610063820         0.0164332010
H       -4.0464819000        -1.4207720730         0.0670114690
C       -1.9135331780        -1.4832546790         0.3171894810
H        0.2148790940        -1.2501718460         0.5251469260
H        1.1690215030         0.7989879040         0.1349809710
H       -1.8873214940        -2.5432636220         0.5293406330

1.034_OH-O__phenol--dimethylether_1.wfx

