%nprocs=4
%mem=2GB
#p hf aug-cc-pvdz output=wfx scf=(conver=6) int=(grid=ultrafine)

title

0 1
H       -2.3109138150         2.0585158380        -0.8896955020
C       -2.2198417380         1.0626835910        -0.4810530510
C       -3.1963292130         0.1023523950        -0.6983956230
C       -1.0961097360         0.7475351660         0.2799560620
H       -4.0658944610         0.3558560860        -1.2884263380
C       -3.0655650130        -1.1775576190        -0.1685876820
C       -0.9616885470        -0.5304398670         0.8227299560
O       -0.1595964960         1.7178186730         0.4587581900
H       -3.8288713290        -1.9214715290        -0.3423647470
C       -1.9453931980        -1.4850596500         0.5922694020
H       -0.1006880080        -0.7660290940         1.4332264000
H        0.6411751420         1.3365054520         0.8481477540
H       -1.8343405970        -2.4720203910         1.0191264980

1.039_OH-O__phenol--nitromethane_1.wfx

