%nprocs=4
%mem=2GB
#p hf aug-cc-pvdz output=wfx scf=(conver=6) int=(grid=ultrafine)

title

0 1
  H   -2.485082966  -2.098408763  -0.853968867
  H   -4.026688716   1.633785037   0.608197701
  H   -4.408134085  -0.625787465  -0.335467356
  H    0.202187250   0.938287260   0.498419350
  H    0.844002840  -1.135250954  -0.285488572
  H   -1.708447229   2.402091595   1.022330716
  C   -3.189942447   0.989890483   0.380545332
  C   -3.401094315  -0.279200002  -0.149294698
  C   -2.331630321  -1.111154080  -0.443130671
  C   -1.028436196  -0.676598944  -0.207090242
  C   -0.807793817   0.595126239   0.322073503
  C   -1.889341620   1.418023582   0.612344185
  O   -0.014457997  -1.527838895  -0.513668008
  H    4.290514428  -0.171963220   1.850872096
  H    3.214648010  -1.597630717   1.816138511
  H    2.557259754  -0.001221469   2.262491379
  H    3.016691434   2.288787654  -1.555242267
  H    3.802380186   0.718630855  -1.879283503
  H    2.018266844   0.831231673  -1.778375598
  C    3.282111360  -0.526056824   1.639495944
  O    2.976973128  -0.367954538   0.264536334
  O    3.038011660   1.071192547   0.015594411
  C    2.963273558   1.214369847  -1.390398298

1.035_OH-O__phenol--dimethylperoxide_125.wfx

