%nprocs=4
%mem=2GB
#p hf aug-cc-pvdz output=wfx scf=(conver=6) int=(grid=ultrafine)

title

0 1
H       -3.3474020110         0.0695623100        -2.1995647130
C       -2.5794886030         0.3804949820        -1.4884179700
C       -3.1913656330         0.5239595250        -0.1337825430
H       -1.7541310900        -0.3244473830        -1.4866184890
H       -2.2288961950         1.3612895860        -1.8192560540
H       -4.0844090470         1.1732219670        -0.0773145190
O       -2.7813140470        -0.0011825210         0.8753602260

1.030_OH-O__phenol--acetaldehyde_2.wfx

