%nprocs=4
%mem=2GB
#p hf aug-cc-pvdz output=wfx scf=(conver=6) int=(grid=ultrafine)

title

0 1
H       -2.4850829660        -2.0984087630        -0.8539688670
C       -2.3316303210        -1.1111540800        -0.4431306710
C       -3.4010943150        -0.2792000020        -0.1492946980
C       -1.0284361960        -0.6765989440        -0.2070902420
H       -4.4081340850        -0.6257874650        -0.3354673560
C       -3.1899424470         0.9898904830         0.3805453320
O       -0.0144579970        -1.5278388950        -0.5136680080
C       -0.8077938170         0.5951262390         0.3220735030
H       -4.0266887160         1.6337850370         0.6081977010
C       -1.8893416200         1.4180235820         0.6123441850
H        0.8440028400        -1.1352509540        -0.2854885720
H        0.2021872500         0.9382872600         0.4984193500
H       -1.7084472290         2.4020915950         1.0223307160

1.035_OH-O__phenol--dimethylperoxide_1.wfx

