%nprocs=4
%mem=2GB
#p hf aug-cc-pvdz output=wfx scf=(conver=6) int=(grid=ultrafine)

title

0 1
  O   -2.153916054   0.260544038   0.000000000
  H   -1.423649291  -0.377504859   0.000000000
  H   -2.958877718  -0.260484419   0.000000000
  H    1.748206685   1.517861979   0.874523371
  H    1.748206685   1.517861979  -0.874523371
  H    0.194359874   1.379542519   0.000000000
  H    2.472323300  -0.737851650   0.000000000
  C    1.243796320   1.100041432   0.000000000
  C    1.423724779  -0.383922477   0.000000000
  O    0.527674930  -1.193982919   0.000000000

1.044_OH-O__water--acetaldehyde_110.wfx

