%nprocs=4
%mem=2GB
#p hf aug-cc-pvdz output=wfx scf=(conver=6) int=(grid=ultrafine)

title

0 1
O       -2.3203247450         0.0000000000         0.1173144260
H       -2.7908292690         0.0000000000        -0.7183473260
H       -1.3784582720         0.0000000000        -0.1171526970

1.049_OH-O__water--dimethylether_1.wfx

