%nprocs=4
%mem=2GB
#p hf aug-cc-pvdz output=wfx scf=(conver=6) int=(grid=ultrafine)

title

0 1
H        3.7190658360        -1.3136879980         1.3306047130
C        3.3229801670        -0.5507623630         0.6763197860
C        2.0551631740        -0.7301205690         0.1257939140
C        4.0497869450         0.5919736840         0.3794252740
O        1.3821652410        -1.8650711860         0.4523431550
C        1.5256714150         0.2425972940        -0.7214700700
C        3.5272794490         1.5675339010        -0.4638084620
H        5.0324381160         0.7214883160         0.8112885600
H        0.5072480690        -1.8776554780         0.0372915300
H        0.5417010560         0.1083394150        -1.1470481330
C        2.2636344590         1.3837044130        -1.0096763720
H        4.0970905740         2.4564980440        -0.6910248020
H        1.8426339800         2.1328210600        -1.6657955100

1.042_OH-O__phenol--phenol_1.wfx

