%nprocs=4
%mem=2GB
#p hf aug-cc-pvdz output=wfx scf=(conver=6) int=(grid=ultrafine)

title

0 1
  O   -2.320324745   0.000000000   0.117314426
  H   -1.378458272  -0.000000000  -0.117152697
  H   -2.790829269  -0.000000000  -0.718347326
  H    0.633621815  -2.023260918  -0.291074603
  H    2.227208375  -1.236170762  -0.204457992
  H    1.146033675  -1.223291109   1.210969636
  H    0.633621815   2.023260918  -0.291074603
  H    2.227208375   1.236170762  -0.204457992
  H    1.146033675   1.223291109   1.210969636
  C    1.183252497  -1.180211636   0.118232813
  O    0.568565859   0.000000000  -0.366529068
  C    1.183252497   1.180211636   0.118232813

1.049_OH-O__water--dimethylether_105.wfx

