%nprocs=4
%mem=2GB
#p hf aug-cc-pvdz output=wfx scf=(conver=6) int=(grid=ultrafine)

title

0 1
  O    2.648113351  -0.005062030   0.051270593
  H    1.805684032   0.476084405  -0.034687035
  H    3.300303128   0.656925041   0.286903343
  H   -2.839560344  -0.458372619   0.157458942
  H   -2.519295800   1.240941123   0.084167378
  H    0.491743508  -1.472969114   0.556734386
  H   -0.129526422  -1.618323919  -1.073879798
  H   -1.172808432  -2.053592569   0.289979638
  O   -0.059948251   1.009892683  -0.106887860
  C   -0.847845800   0.078411301  -0.019760854
  N   -2.181714902   0.294278128   0.089723896
  C   -0.403203932  -1.364111563  -0.050074522

1.045_OH-O__water--acetamide_105.wfx

