%nprocs=4
%mem=2GB
#p hf aug-cc-pvdz output=wfx scf=(conver=6) int=(grid=ultrafine)

title

0 1
  O   -2.153916054   0.260544038   0.000000000
  H   -1.423649291  -0.377504859   0.000000000
  H   -2.958877718  -0.260484419   0.000000000
  H    1.393420463   1.666312535   0.874523371
  H    1.393420463   1.666312535  -0.874523371
  H   -0.160426348   1.527993075   0.000000000
  H    2.117537078  -0.589401094   0.000000000
  C    0.889010098   1.248491988   0.000000000
  C    1.068938557  -0.235471921   0.000000000
  O    0.172888708  -1.045532363   0.000000000

1.044_OH-O__water--acetaldehyde_090.wfx

