%nprocs=4
%mem=2GB
#p hf aug-cc-pvdz output=wfx scf=(conver=6) int=(grid=ultrafine)

title

0 1
O        3.5737974100         0.5432119420         0.0000000000
H        4.1422680220         0.4319013410        -0.7668204590
H        4.1422680220         0.4319013410         0.7668204590

1.043_OH-O__phenol--water_2.wfx

