%nprocs=4
%mem=2GB
#p hf aug-cc-pvdz output=wfx scf=(conver=6) int=(grid=ultrafine)

title

0 1
  O    2.648113351  -0.005062030   0.051270593
  H    1.805684032   0.476084405  -0.034687035
  H    3.300303128   0.656925041   0.286903343
  H   -2.661881078  -0.509211503   0.164335212
  H   -2.341616536   1.190102239   0.091043646
  H    0.669422774  -1.523807998   0.563610656
  H    0.048152843  -1.669162803  -1.067003530
  H   -0.995129168  -2.104431453   0.296855906
  O    0.117731014   0.959053799  -0.100011590
  C   -0.670166536   0.027572417  -0.012884586
  N   -2.004035636   0.243439244   0.096600164
  C   -0.225524668  -1.414950447  -0.043198254

1.045_OH-O__water--acetamide_095.wfx

