%nprocs=4
%mem=2GB
#p hf aug-cc-pvdz output=wfx scf=(conver=6) int=(grid=ultrafine)

title

0 1
  O    3.333999454   0.411171256   0.000000000
  H    3.887689246   1.193969482   0.000000000
  H    2.422199545   0.738960793   0.000000000
  H   -4.700975752  -0.364306037  -0.888871135
  H   -4.700975752  -0.364306037   0.888871135
  H   -5.550917552   0.924674840   0.000000000
  H   -0.466692269  -1.068837198   0.885042540
  H   -0.466692269  -1.068837198  -0.885042540
  H   -1.231869991  -2.418832989   0.000000000
  O   -3.548656608   1.131162221   0.000000000
  C   -2.321987869   0.614832556   0.000000000
  O   -1.342972797   1.317060173   0.000000000
  O   -2.323360075  -0.720265290   0.000000000
  C   -1.027311534  -1.354327770   0.000000000
  C   -4.692856356   0.261506353   0.000000000

1.048_OH-O__water--dimethylcarbonate_200.wfx

