%nprocs=4
%mem=2GB
#p hf aug-cc-pvdz output=wfx scf=(conver=6) int=(grid=ultrafine)

title

0 1
  O    3.333999454   0.411171256   0.000000000
  H    3.887689246   1.193969482   0.000000000
  H    2.422199545   0.738960793   0.000000000
  H   -3.289036124  -0.581093304  -0.888871135
  H   -3.289036124  -0.581093304   0.888871135
  H   -4.138977924   0.707887572   0.000000000
  H    0.945247359  -1.285624466   0.885042540
  H    0.945247359  -1.285624466  -0.885042540
  H    0.180069637  -2.635620256   0.000000000
  O   -2.136716980   0.914374954   0.000000000
  C   -0.910048241   0.398045288   0.000000000
  O    0.068966831   1.100272906   0.000000000
  O   -0.911420447  -0.937052558   0.000000000
  C    0.384628094  -1.571115038   0.000000000
  C   -3.280916728   0.044719086   0.000000000

1.048_OH-O__water--dimethylcarbonate_125.wfx

