%nprocs=4
%mem=2GB
#p hf aug-cc-pvdz output=wfx scf=(conver=6) int=(grid=ultrafine)

title

0 1
H       -0.8856557210         1.9555707490         0.7660387290
C       -0.3426523010         1.3993661030         0.0013067390
C       -0.7698846850        -0.0462998840        -0.0008547060
H       -0.6073121220         1.8459785680        -0.9596645250
H        0.7279773110         1.4902287490         0.1551959560
C       -2.2534928510        -0.3174888860         0.0092704760
O        0.0321582070        -0.9576573320        -0.0140236040
H       -2.4456823060        -1.3782938290        -0.1179415300
H       -2.6753628920         0.0177172600         0.9587833870
H       -2.7518786630         0.2526004830        -0.7755464590

1.047_OH-O__water--acetone_2.wfx

