%nprocs=4
%mem=2GB
#p hf aug-cc-pvdz output=wfx scf=(conver=6) int=(grid=ultrafine)

title

0 1
  O   -2.320324745   0.000000000   0.117314426
  H   -1.378458272  -0.000000000  -0.117152697
  H   -2.790829269  -0.000000000  -0.718347326
  H    0.262760076  -2.023260918  -0.243574342
  H    1.856346636  -1.236170762  -0.156957731
  H    0.775171936  -1.223291109   1.258469897
  H    0.262760076   2.023260918  -0.243574342
  H    1.856346636   1.236170762  -0.156957731
  H    0.775171936   1.223291109   1.258469897
  C    0.812390758  -1.180211636   0.165733074
  O    0.197704120  -0.000000000  -0.319028807
  C    0.812390758   1.180211636   0.165733074

1.049_OH-O__water--dimethylether_085.wfx

