%nprocs=4
%mem=2GB
#p hf aug-cc-pvdz output=wfx scf=(conver=6) int=(grid=ultrafine)

title

0 1
  O   -2.320324745   0.000000000   0.117314426
  H   -1.378458272  -0.000000000  -0.117152697
  H   -2.790829269  -0.000000000  -0.718347326
  H    0.726337250  -2.023260918  -0.302949669
  H    2.319923810  -1.236170762  -0.216333058
  H    1.238749110  -1.223291109   1.199094570
  H    0.726337250   2.023260918  -0.302949669
  H    2.319923810   1.236170762  -0.216333058
  H    1.238749110   1.223291109   1.199094570
  C    1.275967932  -1.180211636   0.106357747
  O    0.661281294   0.000000000  -0.378404134
  C    1.275967932   1.180211636   0.106357747

1.049_OH-O__water--dimethylether_110.wfx

