%nprocs=4
%mem=2GB
#p hf aug-cc-pvdz output=wfx scf=(conver=6) int=(grid=ultrafine)

title

0 1
C        4.0998030970         0.8925527790         0.5959906590
C        2.8456632070         0.1723520310         0.1611108090
H        4.7442563970         1.1811825880        -0.2316311240
H        4.6542494970         0.2455500850         1.2729620830
H        3.8142763600         1.7820174750         1.1544824240
N        2.6848957620        -0.0092305170        -1.1639701880
O        2.0286388630        -0.2214525260         0.9897112980
C        1.5279198510        -0.6783730940        -1.7402705760
H        3.3838564980         0.3597287560        -1.7814273400
H        1.3516417740        -1.6271945620        -1.2404387700
H        1.7219605810        -0.8598543020        -2.7932822490
H        0.6288415820        -0.0720790170        -1.6420613440

1.041_OH-O__phenol--Nmethylacetamide_2.wfx

