%nprocs=4
%mem=2GB
#p hf aug-cc-pvdz output=wfx scf=(conver=6) int=(grid=ultrafine)

title

0 1
H       -2.7526150320        -2.1724331110         0.0810736020
C       -2.6048535850        -1.1022745630         0.0633837370
C       -3.6157779780        -0.2431939840        -0.3393113600
C       -1.3679146840        -0.5900429010         0.4575455550
H       -4.5698610110        -0.6529308950        -0.6411925480
C       -3.4138810540         1.1334711300        -0.3596382720
O       -0.4101818850        -1.4656886180         0.8371736450
C       -1.1621167420         0.7919392150         0.4456843520
H       -4.2047164700         1.7983357120        -0.6746935620
C       -2.1829524600         1.6408873260         0.0368674830
H        0.4468930560        -1.0093729310         0.9557268950
H       -0.2101594090         1.1884267380         0.7682970060
H       -2.0129696120         2.7089678200         0.0350752020

1.041_OH-O__phenol--Nmethylacetamide_1.wfx

