%nprocs=4
%mem=2GB
#p hf aug-cc-pvdz output=wfx scf=(conver=6) int=(grid=ultrafine)

title

0 1
  O   -2.153916054   0.260544038   0.000000000
  H   -1.423649291  -0.377504859   0.000000000
  H   -2.958877718  -0.260484419   0.000000000
  H    1.482117018   1.629199896   0.874523371
  H    1.482117018   1.629199896  -0.874523371
  H   -0.071729793   1.490880436   0.000000000
  H    2.206233634  -0.626513733   0.000000000
  C    0.977706654   1.211379349   0.000000000
  C    1.157635112  -0.272584560   0.000000000
  O    0.261585264  -1.082645002   0.000000000

1.044_OH-O__water--acetaldehyde_095.wfx

