%nprocs=4
%mem=2GB
#p hf aug-cc-pvdz output=wfx scf=(conver=6) int=(grid=ultrafine)

title

0 1
  O   -2.153916054   0.260544038   0.000000000
  H   -1.423649291  -0.377504859   0.000000000
  H   -2.958877718  -0.260484419   0.000000000
  H    3.344744684   0.849834475   0.874523371
  H    3.344744684   0.849834475  -0.874523371
  H    1.790897873   0.711515015   0.000000000
  H    4.068861299  -1.405879154   0.000000000
  C    2.840334319   0.432013928   0.000000000
  C    3.020262778  -1.051949981   0.000000000
  O    2.124212929  -1.862010423   0.000000000

1.044_OH-O__water--acetaldehyde_200.wfx

