%nprocs=4
%mem=2GB
#p hf aug-cc-pvdz output=wfx scf=(conver=6) int=(grid=ultrafine)

title

0 1
  O    2.708854782  -0.010936008  -0.008448999
  H    1.863798762  -0.489823812  -0.013073612
  H    3.374916630  -0.659170931   0.227069638
  H   -2.717296276   1.487737229   0.765088737
  H   -1.103663244   1.022395229   0.154245964
  H   -2.438952677   1.378145048  -0.960614517
  H   -4.277322861  -1.846127349  -0.118891522
  H   -4.507003447  -0.450116260   0.957833395
  C   -2.174292856   0.931532583   0.000356747
  C   -2.601525240  -0.514133404  -0.001804698
  O   -1.799482348  -1.425490852  -0.014973596
  C   -4.085133406  -0.785322406   0.008320484
  H   -4.583519218  -0.215233037  -0.776496451

1.047_OH-O__water--acetone_200.wfx

