%nprocs=4
%mem=2GB
#p hf aug-cc-pvdz output=wfx scf=(conver=6) int=(grid=ultrafine)

title

0 1
H        1.5708135740         1.5920872570         0.8745233710
C        1.0664032090         1.1742667100         0.0000000000
H        0.0169667630         1.4537677970         0.0000000000
C        1.2463316680        -0.3096971990         0.0000000000
H        1.5708135740         1.5920872570        -0.8745233710
O        0.3502818190        -1.1197576410         0.0000000000
H        2.2949301890        -0.6636263720         0.0000000000

1.044_OH-O__water--acetaldehyde_2.wfx

