%nprocs=4
%mem=2GB
#p hf aug-cc-pvdz output=wfx scf=(conver=6) int=(grid=ultrafine)

title

0 1
O        2.6481133510        -0.0050620300         0.0512705930
H        1.8056840320         0.4760844050        -0.0346870350
H        3.3003031280         0.6569250410         0.2869033430

1.045_OH-O__water--acetamide_1.wfx

