%nprocs=4
%mem=2GB
#p hf aug-cc-pvdz output=wfx scf=(conver=6) int=(grid=ultrafine)

title

0 1
  O    2.708854782  -0.010936008  -0.008448999
  H    1.863798762  -0.489823812  -0.013073612
  H    3.374916630  -0.659170931   0.227069638
  H   -0.977237749   1.932179073   0.765991229
  H    0.636395283   1.466837073   0.155148456
  H   -0.698894150   1.822586892  -0.959712025
  H   -2.537264334  -1.401685505  -0.117989030
  H   -2.766944920  -0.005674416   0.958735887
  C   -0.434234329   1.375974427   0.001259239
  C   -0.861466713  -0.069691560  -0.000902206
  O   -0.059423821  -0.981049008  -0.014071104
  C   -2.345074879  -0.340880562   0.009222976
  H   -2.843460691   0.229208807  -0.775593959

1.047_OH-O__water--acetone_105.wfx

