%nprocs=4
%mem=2GB
#p hf aug-cc-pvdz output=wfx scf=(conver=6) int=(grid=ultrafine)

title

0 1
  O    2.708854782  -0.010936008  -0.008448999
  H    1.863798762  -0.489823812  -0.013073612
  H    3.374916630  -0.659170931   0.227069638
  H   -1.068819776   1.908787397   0.765943730
  H    0.544813256   1.443445397   0.155100957
  H   -0.790476178   1.799195216  -0.959759524
  H   -2.628846362  -1.425077181  -0.118036529
  H   -2.858526948  -0.029066092   0.958688388
  C   -0.525816356   1.352582751   0.001211740
  C   -0.953048740  -0.093083236  -0.000949705
  O   -0.151005848  -1.004440684  -0.014118603
  C   -2.436656906  -0.364272238   0.009175477
  H   -2.935042718   0.205817131  -0.775641458

1.047_OH-O__water--acetone_110.wfx

