%nprocs=4
%mem=2GB
#p hf aug-cc-pvdz output=wfx scf=(conver=6) int=(grid=ultrafine)

title

0 1
  O   -2.320324745   0.000000000   0.117314426
  H   -1.378458272  -0.000000000  -0.117152697
  H   -2.790829269  -0.000000000  -0.718347326
  H    0.355475510  -2.023260918  -0.255449407
  H    1.949062070  -1.236170762  -0.168832796
  H    0.867887370  -1.223291109   1.246594832
  H    0.355475510   2.023260918  -0.255449407
  H    1.949062070   1.236170762  -0.168832796
  H    0.867887370   1.223291109   1.246594832
  C    0.905106192  -1.180211636   0.153858009
  O    0.290419554  -0.000000000  -0.330903872
  C    0.905106192   1.180211636   0.153858009

1.049_OH-O__water--dimethylether_090.wfx

