%nprocs=4
%mem=2GB
#p hf aug-cc-pvdz output=wfx scf=(conver=6) int=(grid=ultrafine)

title

0 1
O        3.3339994540         0.4111712560         0.0000000000
H        2.4221995450         0.7389607930         0.0000000000
H        3.8876892460         1.1939694820         0.0000000000

1.048_OH-O__water--dimethylcarbonate_1.wfx

