%nprocs=4
%mem=2GB
#p hf aug-cc-pvdz output=wfx scf=(conver=6) int=(grid=ultrafine)

title

0 1
O       -2.6995245770         0.0126053440         0.0251417400
H       -3.3987450370        -0.5735851610        -0.2694514030
H       -1.8866691660        -0.5158679390         0.0098311510

1.046_OH-O__water--aceticacid_1.wfx

