%nprocs=4
%mem=2GB
#p hf aug-cc-pvdz output=wfx scf=(conver=6) int=(grid=ultrafine)

title

0 1
  O   -1.482906810   0.000000000   0.066553751
  H   -0.523433128   0.000000000  -0.062492370
  H   -1.857903264   0.000000000  -0.816212005
  O    1.220795416   0.000000000  -0.064229888
  H    1.539005718  -0.765012213   0.422633727
  H    1.539005718   0.765012213   0.422633727

1.058_OH-O__water--water_090.wfx

