%nprocs=4
%mem=2GB
#p hf aug-cc-pvdz output=wfx scf=(conver=6) int=(grid=ultrafine)

title

0 1
O       -2.8138475820        -0.5794403730         0.0000000000
H       -3.2629567610        -1.4263789850         0.0000000000
H       -1.8644054860        -0.7921500540         0.0000000000

1.056_OH-O__water--Nmethylacetamide_1.wfx

