%nprocs=4
%mem=2GB
#p hf aug-cc-pvdz output=wfx scf=(conver=6) int=(grid=ultrafine)

title

0 1
  O   -1.482906810   0.000000000   0.066553751
  H   -0.523433128   0.000000000  -0.062492370
  H   -1.857903264   0.000000000  -0.816212005
  O    1.899106516   0.000000000  -0.064905590
  H    2.217316819  -0.765012213   0.421958025
  H    2.217316819   0.765012213   0.421958025

1.058_OH-O__water--water_125.wfx

