%nprocs=4
%mem=2GB
#p hf aug-cc-pvdz output=wfx scf=(conver=6) int=(grid=ultrafine)

title

0 1
  O   -1.482906810   0.000000000   0.066553751
  H   -0.523433128   0.000000000  -0.062492370
  H   -1.857903264   0.000000000  -0.816212005
  O    1.414598587   0.000000000  -0.064422946
  H    1.732808890  -0.765012213   0.422440669
  H    1.732808890   0.765012213   0.422440669

1.058_OH-O__water--water_100.wfx

