%nprocs=4
%mem=2GB
#p hf aug-cc-pvdz output=wfx scf=(conver=6) int=(grid=ultrafine)

title

0 1
  O   -2.895240919  -0.497989760   0.000000000
  H   -1.964204640  -0.766319753   0.000000000
  H   -3.397074245  -1.315014108   0.000000000
  H   -0.821861647   1.318079802  -0.884472404
  H   -0.093941606   2.687765303   0.000000000
  H   -0.821861647   1.318079802   0.884472404
  H    3.038916381  -0.434821921  -0.877429992
  C    1.097768309  -0.316133500   0.000000000
  O    1.044953385   1.019128994   0.000000000
  C   -0.266579782   1.617673717   0.000000000
  C    2.515773490  -0.811909391   0.000000000
  O    0.120668679  -1.029536986   0.000000000
  H    3.038916381  -0.434821921   0.877429992
  H    2.523089931  -1.896096823   0.000000000

1.053_OH-O__water--methylacetate_110.wfx

