%nprocs=4
%mem=2GB
#p hf aug-cc-pvdz output=wfx scf=(conver=6) int=(grid=ultrafine)

title

0 1
  O    2.252064758  -0.204860672   0.000000000
  H    1.515521979   0.420353726   0.000000000
  H    3.050665278   0.326750978   0.000000000
  H   -1.479926821  -1.576119023   0.876067438
  H   -1.479926821  -1.576119023  -0.876067438
  H    0.078263279  -1.309308659   0.000000000
  C   -0.996162043  -1.140719860   0.000000000
  N   -1.356856010   0.287076299   0.000000000
  O   -0.422511137   1.043878112   0.000000000

1.055_OH-O__water--nitrosomethane_100.wfx

