%nprocs=4
%mem=2GB
#p hf aug-cc-pvdz output=wfx scf=(conver=6) int=(grid=ultrafine)

title

0 1
  O    3.643124100  -0.597811965  -0.020796782
  H    2.964630919   0.089448888  -0.026842507
  H    3.954319898  -0.635346600   0.885978140
  H   -0.613068195  -0.281583486  -0.062503314
  H   -4.908089628  -0.246231084   0.025520469
  H   -2.772589590  -1.498555387  -0.030240088
  H   -2.720557337   3.439093939   0.025841317
  H   -0.440859027   3.223887691  -0.059905188
  H   -4.870957970   2.229777848   0.050792599
  C   -3.967155400   0.283639542   0.014155588
  C   -2.766553708  -0.417957762  -0.016404185
  C   -1.551893591   0.252117850  -0.032623133
  C   -1.545712162   1.641855177  -0.016330638
  C   -2.736743811   2.356457462   0.013565563
  C   -3.945806094   1.671750323   0.028156654
  O   -0.323110595   2.271087656  -0.028806727

1.057_OH-O__water--phenol_200.wfx

