%nprocs=4
%mem=2GB
#p hf aug-cc-pvdz output=wfx scf=(conver=6) int=(grid=ultrafine)

title

0 1
  O   -2.813847582  -0.579440373   0.000000000
  H   -1.864405486  -0.792150054   0.000000000
  H   -3.262956761  -1.426378985   0.000000000
  C    2.070876851  -0.734093665   0.000000000
  H    2.214723952  -1.361168738   0.877815376
  H    2.214723952  -1.361168738  -0.877815376
  H    2.817825753   0.057196707   0.000000000
  C    0.648666015  -0.221989400   0.000000000
  O   -0.302661956  -0.995226198   0.000000000
  N    0.492581725   1.118428786   0.000000000
  H    1.311651083   1.696726387   0.000000000
  C   -0.817215750   1.752036822   0.000000000
  H   -1.390566460   1.462380523   0.878089944
  H   -1.390566460   1.462380523  -0.878089944
  H   -0.680441306   2.829476206   0.000000000

1.056_OH-O__water--Nmethylacetamide_085.wfx

