%nprocs=4
%mem=2GB
#p hf aug-cc-pvdz output=wfx scf=(conver=6) int=(grid=ultrafine)

title

0 1
  O    2.252064758  -0.204860672   0.000000000
  H    1.515521979   0.420353726   0.000000000
  H    3.050665278   0.326750978   0.000000000
  H   -3.417959937  -0.952594637   0.876067438
  H   -3.417959937  -0.952594637  -0.876067438
  H   -1.859769837  -0.685784273   0.000000000
  C   -2.934195159  -0.517195474   0.000000000
  N   -3.294889126   0.910600685   0.000000000
  O   -2.360544253   1.667402498   0.000000000

1.055_OH-O__water--nitrosomethane_200.wfx

