%nprocs=4
%mem=2GB
#p hf aug-cc-pvdz output=wfx scf=(conver=6) int=(grid=ultrafine)

title

0 1
  O   -3.168979061   0.031566438   0.057158001
  H   -2.271400588  -0.319570767   0.038140987
  H   -3.550834313  -0.206435184  -0.790285057
  H    2.985318739  -0.776451481   0.012384691
  H    2.192007910   1.841980378  -0.000165750
  H    0.648409755  -2.197502982   0.007076595
  H   -0.546175179   1.722907999  -0.010736087
  C    1.562178407   0.970838417  -0.001890268
  C    1.977975041  -0.401063152   0.004963600
  C    0.846640967  -1.142520214   0.001967037
  O   -0.247398614  -0.326647512  -0.007422872
  C    0.209688344   0.960372368  -0.008890564

1.051_OH-O__water--furan_100.wfx

