%nprocs=4
%mem=2GB
#p hf aug-cc-pvdz output=wfx scf=(conver=6) int=(grid=ultrafine)

title

0 1
  O   -2.647490238  -0.017014849   0.109261531
  H   -1.908793644   0.582338804  -0.062111237
  H   -3.359157536   0.530775568   0.446246303
  H    0.275523158  -1.116265895   0.319272334
  H    1.953786368  -1.792804942   0.228454232
  H    1.074389664  -1.301160006  -1.251383148
  C    1.231207178  -1.107285588  -0.193662088
  N    1.796675780   0.274438202  -0.095074246
  O    1.027374748   1.209333650  -0.282127080
  O    2.980661252   0.391132186   0.141812046

1.054_OH-O__water--nitromethane_150.wfx

