%nprocs=4
%mem=2GB
#p hf aug-cc-pvdz output=wfx scf=(conver=6) int=(grid=ultrafine)

title

0 1
O       -2.8952409190        -0.4979897600         0.0000000000
H       -3.3970742450        -1.3150141080         0.0000000000
H       -1.9642046400        -0.7663197530         0.0000000000

1.053_OH-O__water--methylacetate_1.wfx

