%nprocs=4
%mem=2GB
#p hf aug-cc-pvdz output=wfx scf=(conver=6) int=(grid=ultrafine)

title

0 1
  O    2.252064758  -0.204860672   0.000000000
  H    1.515521979   0.420353726   0.000000000
  H    3.050665278   0.326750978   0.000000000
  H   -1.964435100  -1.420237926   0.876067438
  H   -1.964435100  -1.420237926  -0.876067438
  H   -0.406245000  -1.153427562   0.000000000
  C   -1.480670322  -0.984838764   0.000000000
  N   -1.841364289   0.442957396   0.000000000
  O   -0.907019416   1.199759208   0.000000000

1.055_OH-O__water--nitrosomethane_125.wfx

