%nprocs=4
%mem=2GB
#p hf aug-cc-pvdz output=wfx scf=(conver=6) int=(grid=ultrafine)

title

0 1
O        2.2520647580        -0.2048606720         0.0000000000
H        1.5155219790         0.4203537260         0.0000000000
H        3.0506652780         0.3267509780         0.0000000000

1.055_OH-O__water--nitrosomethane_1.wfx

