%nprocs=4
%mem=2GB
#p hf aug-cc-pvdz output=wfx scf=(conver=6) int=(grid=ultrafine)

title

0 1
O        1.4145985870         0.0000000000        -0.0644229460
H        1.7328088900        -0.7650122130         0.4224406690
H        1.7328088900         0.7650122130         0.4224406690

1.058_OH-O__water--water_2.wfx

