%nprocs=4
%mem=2GB
#p hf aug-cc-pvdz output=wfx scf=(conver=6) int=(grid=ultrafine)

title

0 1
  O    2.252064758  -0.204860672   0.000000000
  H    1.515521979   0.420353726   0.000000000
  H    3.050665278   0.326750978   0.000000000
  H   -1.189221854  -1.669647681   0.876067438
  H   -1.189221854  -1.669647681  -0.876067438
  H    0.368968246  -1.402837317   0.000000000
  C   -0.705457076  -1.234248518   0.000000000
  N   -1.066151043   0.193547641   0.000000000
  O   -0.131806170   0.950349454   0.000000000

1.055_OH-O__water--nitrosomethane_085.wfx

