%nprocs=4
%mem=2GB
#p hf aug-cc-pvdz output=wfx scf=(conver=6) int=(grid=ultrafine)

title

0 1
C        2.3464786500        -0.7699306320         0.0000000000
H        2.4903257510        -1.3970057050        -0.8778153760
C        0.9242678140        -0.2578263670         0.0000000000
H        2.4903257510        -1.3970057050         0.8778153760
H        3.0934275520         0.0213597400         0.0000000000
O       -0.0270601570        -1.0310631650         0.0000000000
N        0.7681835240         1.0825918190         0.0000000000
C       -0.5416139510         1.7161998550         0.0000000000
H        1.5872528820         1.6608894200         0.0000000000
H       -1.1149646610         1.4265435560        -0.8780899440
H       -1.1149646610         1.4265435560         0.8780899440
H       -0.4048395070         2.7936392390         0.0000000000

1.056_OH-O__water--Nmethylacetamide_2.wfx

