%nprocs=4
%mem=2GB
#p hf aug-cc-pvdz output=wfx scf=(conver=6) int=(grid=ultrafine)

title

0 1
  O   -2.476583740   0.070717023   0.010162718
  H   -2.515708704  -0.114184442   0.950833203
  H   -1.550248247   0.291139125  -0.161496375
  H    1.838558196  -1.703235679  -1.136579465
  H    1.467649709  -2.465694212   0.434720408
  H    0.139911665  -1.872302474  -0.595875008
  H    1.075149916   2.528866880  -0.679395556
  H    2.523560697   1.693621066  -0.049485481
  H    1.113838414   1.974082760   1.014103342
  C    1.168016397  -1.697484056  -0.276216143
  O    1.277292109  -0.485935993   0.447370663
  O    0.845025659   0.559625905  -0.478485716
  C    1.436055865   1.754726611  -0.004766397

1.050_OH-O__water--dimethylperoxide_125.wfx

