%nprocs=4
%mem=2GB
#p hf aug-cc-pvdz output=wfx scf=(conver=6) int=(grid=ultrafine)

title

0 1
H        2.9853187390        -0.7764514810         0.0123846910
C        1.9779750410        -0.4010631520         0.0049636000
C        0.8466409670        -1.1425202140         0.0019670370
C        1.5621784070         0.9708384170        -0.0018902680
O       -0.2473986140        -0.3266475120        -0.0074228720
H        0.6484097550        -2.1975029820         0.0070765950
H        2.1920079100         1.8419803780        -0.0001657500
C        0.2096883440         0.9603723680        -0.0088905640
H       -0.5461751790         1.7229079990        -0.0107360870

1.051_OH-O__water--furan_2.wfx

