%nprocs=4
%mem=2GB
#p hf aug-cc-pvdz output=wfx scf=(conver=6) int=(grid=ultrafine)

title

0 1
  O    2.252064758  -0.204860672   0.000000000
  H    1.515521979   0.420353726   0.000000000
  H    3.050665278   0.326750978   0.000000000
  H   -1.286123509  -1.638471462   0.876067438
  H   -1.286123509  -1.638471462  -0.876067438
  H    0.272066591  -1.371661098   0.000000000
  C   -0.802358731  -1.203072299   0.000000000
  N   -1.163052698   0.224723860   0.000000000
  O   -0.228707825   0.981525673   0.000000000

1.055_OH-O__water--nitrosomethane_090.wfx

