%nprocs=4
%mem=2GB
#p hf aug-cc-pvdz output=wfx scf=(conver=6) int=(grid=ultrafine)

title

0 1
O       -1.4829068100         0.0000000000         0.0665537510
H       -0.5234331280         0.0000000000        -0.0624923700
H       -1.8579032640         0.0000000000        -0.8162120050

1.058_OH-O__water--water_1.wfx

