%nprocs=4
%mem=2GB
#p hf aug-cc-pvdz output=wfx scf=(conver=6) int=(grid=ultrafine)

title

0 1
  O   -2.647490238  -0.017014849   0.109261531
  H   -1.908793644   0.582338804  -0.062111237
  H   -3.359157536   0.530775568   0.446246303
  H    1.254245955  -0.907267613   0.245933720
  H    2.932509166  -1.583806660   0.155115617
  H    2.053112462  -1.092161724  -1.324721762
  C    2.209929975  -0.898287306  -0.267000702
  N    2.775398578   0.483436484  -0.168412861
  O    2.006097546   1.418331932  -0.355465695
  O    3.959384049   0.600130468   0.068473431

1.054_OH-O__water--nitromethane_200.wfx

