%nprocs=4
%mem=2GB
#p hf aug-cc-pvdz output=wfx scf=(conver=6) int=(grid=ultrafine)

title

0 1
  C    1.912545987  -0.057780332   0.000000000
  O    1.238974174  -1.078933568   0.000000000
  O    1.403277277   1.156430941   0.000000000
  H    0.402636075   1.121789389   0.000000000
  C    3.412740911  -0.073587659   0.000000000
  H    3.775203505  -1.095241731   0.000000000
  H    3.782363765   0.456370691  -0.876751219
  H    3.782363765   0.456370691   0.876751219
  H   -0.074314025  -1.113218225   0.000000000
  H   -3.454041715  -0.447799527   0.876751219
  H   -3.446881455   1.103812895   0.000000000
  H   -3.454041715  -0.447799527  -0.876751219
  O   -0.910652124   1.087504732   0.000000000
  C   -1.584223937   0.066351496   0.000000000
  O   -1.074955227  -1.147859777   0.000000000
  C   -3.084418861   0.082158823   0.000000000

1.059_OH-Ox2__aceticacid--aceticacid_080.wfx

