%nprocs=4
%mem=2GB
#p hf aug-cc-pvdz output=wfx scf=(conver=6) int=(grid=ultrafine)

title

0 1
  O   -2.813847582  -0.579440373   0.000000000
  H   -1.864405486  -0.792150054   0.000000000
  H   -3.262956761  -1.426378985   0.000000000
  C    3.265151314  -0.889387188   0.000000000
  H    3.408998416  -1.516462260   0.877815376
  H    3.408998416  -1.516462260  -0.877815376
  H    4.012100216  -0.098096816   0.000000000
  C    1.842940478  -0.377282922   0.000000000
  O    0.891612508  -1.150519720   0.000000000
  N    1.686856188   0.963135264   0.000000000
  H    2.505925546   1.541432864   0.000000000
  C    0.377058714   1.596743300   0.000000000
  H   -0.196291996   1.307087000   0.878089944
  H   -0.196291996   1.307087000  -0.878089944
  H    0.513833158   2.674182684   0.000000000

1.056_OH-O__water--Nmethylacetamide_150.wfx

