%nprocs=4
%mem=2GB
#p hf aug-cc-pvdz output=wfx scf=(conver=6) int=(grid=ultrafine)

title

0 1
  O   -2.011851377   0.172486548  -0.057464338
  H   -1.115176959  -0.185826244   0.033281139
  H   -2.491709977  -0.144630420   0.709936574
  O    0.353576951  -0.553301881   0.049511437
  H    0.584504195  -1.121207140  -0.689057840
  C    1.145632330   0.634931155  -0.004753133
  H    0.833956245   1.254851241   0.830936989
  H    0.978540240   1.187839153  -0.930625502
  H    2.208108226   0.408362195   0.099418624

1.052_OH-O__water--methanol_080.wfx

