%nprocs=4
%mem=2GB
#p hf aug-cc-pvdz output=wfx scf=(conver=6) int=(grid=ultrafine)

title

0 1
O        3.6431241000        -0.5978119650        -0.0207967820
H        3.9543198980        -0.6353466000         0.8859781400
H        2.9646309190         0.0894488880        -0.0268425070

1.057_OH-O__water--phenol_1.wfx

