%nprocs=4
%mem=2GB
#p hf aug-cc-pvdz output=wfx scf=(conver=6) int=(grid=ultrafine)

title

0 1
  O    3.643124100  -0.597811965  -0.020796782
  H    2.964630919   0.089448888  -0.026842507
  H    3.954319898  -0.635346600   0.885978140
  H    0.208867184  -0.826993178  -0.062012259
  H   -4.086154250  -0.791640776   0.026011524
  H   -1.950654212  -2.043965079  -0.029749033
  H   -1.898621958   2.893684247   0.026332372
  H    0.381076352   2.678477999  -0.059414133
  H   -4.049022592   1.684368156   0.051283654
  C   -3.145220022  -0.261770150   0.014646643
  C   -1.944618330  -0.963367454  -0.015913130
  C   -0.729958212  -0.293291842  -0.032132078
  C   -0.723776784   1.096445485  -0.015839583
  C   -1.914808432   1.811047770   0.014056618
  C   -3.123870716   1.126340631   0.028647709
  O    0.498824784   1.725677964  -0.028315672

1.057_OH-O__water--phenol_150.wfx

