%nprocs=4
%mem=2GB
#p hf aug-cc-pvdz output=wfx scf=(conver=6) int=(grid=ultrafine)

title

0 1
  O   -2.895240919  -0.497989760   0.000000000
  H   -1.964204640  -0.766319753   0.000000000
  H   -3.397074245  -1.315014108   0.000000000
  H   -1.011395585   1.342008641  -0.884472404
  H   -0.283475544   2.711694142   0.000000000
  H   -1.011395585   1.342008641   0.884472404
  H    2.849382443  -0.410893082  -0.877429992
  C    0.908234371  -0.292204661   0.000000000
  O    0.855419447   1.043057833   0.000000000
  C   -0.456113720   1.641602556   0.000000000
  C    2.326239552  -0.787980552   0.000000000
  O   -0.068865259  -1.005608147   0.000000000
  H    2.849382443  -0.410893082   0.877429992
  H    2.333555993  -1.872167984   0.000000000

1.053_OH-O__water--methylacetate_100.wfx

