%nprocs=4
%mem=2GB
#p hf aug-cc-pvdz output=wfx scf=(conver=6) int=(grid=ultrafine)

title

0 1
H        1.5208238610        -1.1960204150         0.1775174040
O        2.3946649910        -1.0324146560         0.5935394460
C        2.8993017270         0.1026484130         0.1046216310
O        2.3307369710         0.7794072030        -0.7301093520
C        4.2333623680         0.4416311030         0.6982258190
H        4.9350339590        -0.3693202870         0.5081570420
H        4.6043473020         1.3656338610         0.2696911930
H        4.1378429840         0.5400584190         1.7787027950

1.060_OH-Ox2__phenol--aceticacid_2.wfx

