%nprocs=4
%mem=2GB
#p hf aug-cc-pvdz output=wfx scf=(conver=6) int=(grid=ultrafine)

title

0 1
H        2.1212193970         0.8084701660        -2.0116203350
C        2.5582649290         0.4708560760        -1.0893834520
N        1.9112636210         0.6427492530         0.1035056010
C        3.7606033290        -0.1483482780        -0.8347862910
H        0.9672093720         0.9863282110         0.2042902220
C        2.6737362930         0.1314337200         1.1172261190
H        4.5042902580        -0.4074213530        -1.5676151530
C        3.8340310610        -0.3639907690         0.5675373010
H        2.3384607940         0.1693579470         2.1378548660
H        4.6443845430        -0.8191671950         1.1091772700

2.005_NH-O__1Hpyrrole--dimethylcarbonate_1.wfx

