%nprocs=4
%mem=2GB
#p hf aug-cc-pvdz output=wfx scf=(conver=6) int=(grid=ultrafine)

title

0 1
  H    1.488864990   0.425224049  -2.102696974
  H    3.826372294  -0.727365895  -1.355832704
  H    3.826372294  -0.727365895   1.355832704
  H    1.488864990   0.425224049   2.102696974
  N    1.170203652   0.586023419   0.000000000
  C    1.874717223   0.231131134  -1.118416757
  C    3.052389622  -0.351049769  -0.710455955
  C    3.052389622  -0.351049769   0.710455955
  C    1.874717223   0.231131134   1.118416757
  H    0.235991546   0.971291779   0.000000000
  H   -4.120356632   0.862797518  -0.000000000
  H   -2.199377088  -1.933977245  -0.876714140
  H   -2.199377088  -1.933977245   0.876714140
  H   -0.773665204  -1.323408449  -0.000000000
  O   -1.851838144   1.031063090  -0.000000000
  C   -2.457852252  -0.014683416  -0.000000000
  O   -3.804304399  -0.051693706  -0.000000000
  C   -1.855671056  -1.386821202  -0.000000000

2.003_NH-O__1Hpyrrole--aceticacid_105.wfx

