%nprocs=4
%mem=2GB
#p hf aug-cc-pvdz output=wfx scf=(conver=6) int=(grid=ultrafine)

title

0 1
H       -2.8120242030        -1.5734266560         1.4243305770
C       -1.9623596840        -1.6583129980         0.7458299970
O       -2.0600068670        -0.7240164750        -0.3124005160
H       -1.9737187640        -2.6284027620         0.2520799040
H       -1.0256722850        -1.5398488070         1.2918987760
O       -2.0262408320         0.5942570730         0.3205814720
C       -2.6739461350         1.4646472680        -0.5888196480
H       -3.7166371390         1.1775080940        -0.7250231070
H       -2.1592496110         1.4791621760        -1.5504523440
H       -2.6136357220         2.4470793040        -0.1238579950

2.007_NH-O__1Hpyrrole--dimethylperoxide_2.wfx

