%nprocs=4
%mem=2GB
#p hf aug-cc-pvdz output=wfx scf=(conver=6) int=(grid=ultrafine)

title

0 1
  H   -1.475341610   1.545514807  -1.544797523
  H   -3.685790602  -0.025571607  -1.547030659
  H   -3.573857820  -1.475364755   0.741755600
  H   -1.303725966  -0.698042256   2.007427477
  N   -1.083594397   0.586466435   0.318771837
  C   -1.805571107   0.823968439  -0.819817267
  C   -2.916603519   0.012704892  -0.795953754
  C   -2.857310571  -0.748029146   0.402872584
  C   -1.712419040  -0.373056663   1.067825573
  H   -0.167779760   0.974865787   0.524858378
  H    1.850555290  -1.825133636  -0.977358587
  H    0.421092186  -0.991022394  -0.472077443
  H    3.979108923  -1.084628058  -0.642186003
  H    4.109401024  -0.126106976   0.845661908
  H    4.046957909   0.687223728  -0.708393171
  O    1.670252523   0.947965122   0.528727522
  C    2.169882363  -0.028260356  -0.016406098
  N    1.426406292  -1.035478260  -0.530116227
  C    3.669036918  -0.166218658  -0.148652403

2.002_NH-O__1Hpyrrole--acetamide_095.wfx

