%nprocs=4
%mem=2GB
#p hf aug-cc-pvdz output=wfx scf=(conver=6) int=(grid=ultrafine)

title

0 1
H        1.9472938310        -1.8265494600        -0.9771549480
N        1.5231448330        -1.0368940850        -0.5299125880
H        0.5178307270        -0.9924382180        -0.4718738040
C        2.2666209040        -0.0296761800        -0.0162024590
O        1.7669910640         0.9465492970         0.5289311610
C        3.7657754590        -0.1676344820        -0.1484487640
H        4.0758474640        -1.0860438820        -0.6419823640
H        4.1436964500         0.6858079040        -0.7081895320
H        4.2061395650        -0.1275228010         0.8458655470

2.002_NH-O__1Hpyrrole--acetamide_2.wfx

