%nprocs=4
%mem=2GB
#p hf aug-cc-pvdz output=wfx scf=(conver=6) int=(grid=ultrafine)

title

0 1
  H   -1.139048716   2.102858053   0.374852826
  H   -3.434472213   1.355855551  -0.858691131
  H   -3.434472213  -1.355855551  -0.858691131
  H   -1.139048716  -2.102858053   0.374852826
  N   -0.824109246  -0.000000000   0.543151809
  C   -1.517024352   1.118505274   0.166076477
  C   -2.674205539   0.710420501  -0.455483170
  C   -2.674205539  -0.710420501  -0.455483170
  C   -1.517024352  -1.118505274   0.166076477
  H    0.088293055  -0.000000000   0.978416275
  H    3.719388489   0.874786789  -1.394465223
  H    3.719388489  -0.874786789  -1.394465223
  H    4.300298159   0.000000000   0.052126341
  H    1.373293842   0.000000000  -0.990227514
  C    3.575053852   0.000000000  -0.756481683
  C    2.176686334   0.000000000  -0.229604365
  O    1.889824296  -0.000000000   0.943931825

2.001_NH-O__1Hpyrrole--acetaldehyde_090.wfx

