%nprocs=4
%mem=2GB
#p hf aug-cc-pvdz output=wfx scf=(conver=6) int=(grid=ultrafine)

title

0 1
  H   -0.649851101   2.102472717  -0.238318218
  H   -3.159886656   1.356082809   0.461785006
  H   -3.159886656  -1.356082809   0.461785006
  H   -0.649851101  -2.102472717  -0.238318218
  N   -0.305714962  -0.000000000  -0.334466678
  C   -1.065324294   1.118110428  -0.121033150
  C   -2.330649709   0.710496943   0.231947451
  C   -2.330649709  -0.710496943   0.231947451
  C   -1.065324294  -1.118110428  -0.121033150
  H    0.671751839  -0.000000000  -0.589621459
  O    4.543606697   0.000000000  -0.537997177
  H    5.251480301   0.000000000  -1.184924609
  C    5.090822633   0.000000000   0.780299758
  H    4.247850736   0.000000000   1.466113848
  H    5.693614707  -0.891138605   0.964156942
  H    5.693614707   0.891138605   0.964156942

2.008_NH-O__1Hpyrrole--methanol_200.wfx

