%nprocs=4
%mem=2GB
#p hf aug-cc-pvdz output=wfx scf=(conver=6) int=(grid=ultrafine)

title

0 1
  H   -1.139048716   2.102858053   0.374852826
  H   -3.434472213   1.355855551  -0.858691131
  H   -3.434472213  -1.355855551  -0.858691131
  H   -1.139048716  -2.102858053   0.374852826
  N   -0.824109246  -0.000000000   0.543151809
  C   -1.517024352   1.118505274   0.166076477
  C   -2.674205539   0.710420501  -0.455483170
  C   -2.674205539  -0.710420501  -0.455483170
  C   -1.517024352  -1.118505274   0.166076477
  H    0.088293055  -0.000000000   0.978416275
  H    5.921260006   0.874786789  -1.436612885
  H    5.921260006  -0.874786789  -1.436612885
  H    6.502169676   0.000000000   0.009978679
  H    3.575165359   0.000000000  -1.032375176
  C    5.776925369   0.000000000  -0.798629345
  C    4.378557851   0.000000000  -0.271752027
  O    4.091695813   0.000000000   0.901784163

2.001_NH-O__1Hpyrrole--acetaldehyde_200.wfx

