%nprocs=4
%mem=2GB
#p hf aug-cc-pvdz output=wfx scf=(conver=6) int=(grid=ultrafine)

title

0 1
H       -2.0464659370        -2.1180415880         0.1271419540
C       -1.9567866960        -1.0509740460         0.0370222990
N       -1.0444854740        -0.4855306560        -0.8110816270
C       -2.6379232150        -0.0330454670         0.6626541020
H       -0.3138652610        -0.9813495780        -1.2930439310
C       -1.1146033800         0.8788401980        -0.7241126210
H       -3.4326923670        -0.1529957470         1.3773816110
C       -2.1033626920         1.1922802080         0.1791892490
H       -0.4706511760         1.5052547510        -1.3137186470
H       -2.4174660270         2.1846659650         0.4505954290

2.004_NH-O__1Hpyrrole--acetone_1.wfx

