%nprocs=4
%mem=2GB
#p hf aug-cc-pvdz output=wfx scf=(conver=6) int=(grid=ultrafine)

title

0 1
H        1.8729106120         1.6157606310         1.5775993010
C        2.0126087810         0.8761248920         0.8102991020
N        0.9493825590         0.3638424150         0.1167517460
C        3.1552383360         0.2769996210         0.3345644230
C        1.3934205470        -0.5554607150        -0.7953975080
H       -0.0188607150         0.6088483400         0.2571611090
C        2.7619464290        -0.6319232600        -0.6849945440
H        4.1566308150         0.4681833920         0.6778243000
H        0.7033161790        -1.0699773990        -1.4383529270
H        3.4068384210        -1.2652923060        -1.2682581580

2.007_NH-O__1Hpyrrole--dimethylperoxide_1.wfx

