%nprocs=4
%mem=2GB
#p hf aug-cc-pvdz output=wfx scf=(conver=6) int=(grid=ultrafine)

title

0 1
N       -2.9190781300        -0.0052794670         0.0000000000
H       -3.4731831590         0.2301957100        -0.8134812200
H       -3.4731831590         0.2301957100         0.8134812200
H       -2.1027718970         0.5983981130         0.0000000000

2.016_NH-O__ammonia--aceticacid_1.wfx

