%nprocs=4
%mem=2GB
#p hf aug-cc-pvdz output=wfx scf=(conver=6) int=(grid=ultrafine)

title

0 1
  N   -2.378616155  -0.173103490   0.000000000
  H   -1.607872674   0.487848479   0.000000000
  H   -2.948252456   0.023192728   0.813288088
  H   -2.948252456   0.023192728  -0.813288088
  H    0.999092050  -1.826872335  -0.874267493
  H    0.999092050  -1.826872335   0.874267493
  H   -0.531172798  -1.507958629   0.000000000
  H    1.975012319   0.332932720   0.000000000
  C    0.544850307  -1.354010982   0.000000000
  C    0.890561762   0.102332999   0.000000000
  O    0.091188629   1.005441295   0.000000000

2.014_NH-O__ammonia--acetaldehyde_080.wfx

