%nprocs=4
%mem=2GB
#p hf aug-cc-pvdz output=wfx scf=(conver=6) int=(grid=ultrafine)

title

0 1
N       -2.3786161550        -0.1731034900         0.0000000000
H       -2.9482524560         0.0231927280        -0.8132880880
H       -2.9482524560         0.0231927280         0.8132880880
H       -1.6078726740         0.4878484790         0.0000000000

2.014_NH-O__ammonia--acetaldehyde_1.wfx

