%nprocs=4
%mem=2GB
#p hf aug-cc-pvdz output=wfx scf=(conver=6) int=(grid=ultrafine)

title

0 1
  N    3.219629555  -0.632154438   0.639868370
  H    2.474939535  -0.928226606   0.016905524
  H    3.308037962  -1.335631672   1.362189912
  H    4.081883341  -0.644978177   0.109847531
  H   -2.364768649   0.205270751   1.568425726
  H   -3.033768294   0.708235375   0.000940737
  H   -3.508324406  -0.856073122   0.708492178
  H    0.915399667   1.771378936  -1.307582240
  H    1.559534677   1.306579169   0.283980310
  H    0.533422656   2.766228319   0.124213042
  O   -1.657076273  -0.857675125  -0.081799265
  C   -0.507282127  -0.243994479  -0.371027515
  O    0.389787412  -0.810393069  -0.936729548
  O   -0.493155655   1.030797616   0.033190479
  C    0.721453389   1.761356892  -0.237826546
  C   -2.701321267  -0.140318420   0.594002760

2.018_NH-O__ammonia--dimethylcarbonate_105.wfx

