%nprocs=4
%mem=2GB
#p hf aug-cc-pvdz output=wfx scf=(conver=6) int=(grid=ultrafine)

title

0 1
O        3.2311217920        -0.0282382420         0.0000000000
H        3.7624850810         0.2004831740        -0.7665410200
H        3.7624850810         0.2004831740         0.7665410200

2.013_NH-O__1Hpyrrole--water_2.wfx

