%nprocs=4
%mem=2GB
#p hf aug-cc-pvdz output=wfx scf=(conver=6) int=(grid=ultrafine)

title

0 1
  N    2.942549562  -0.009879713   0.025692996
  H    2.086252920  -0.555572282  -0.007467359
  H    3.469718954  -0.318336430   0.832750088
  H    3.488666027  -0.249540486  -0.792067471
  H   -0.305512268   2.011147456   0.829749365
  H    1.205699272   1.493025106   0.030334628
  H   -0.228331161   1.959972427  -0.917844439
  H   -2.118179032  -1.214944801  -0.022731695
  H   -2.269442734   0.252590394   0.971883969
  C    0.120818180   1.461535666  -0.011068778
  C   -0.375115430   0.035965385  -0.002883624
  O    0.380917755  -0.910746757  -0.031420125
  C   -1.872975491  -0.159301445   0.042060480
  H   -2.351360954   0.385897804  -0.772793110

2.017_NH-O__ammonia--acetone_080.wfx

