%nprocs=4
%mem=2GB
#p hf aug-cc-pvdz output=wfx scf=(conver=6) int=(grid=ultrafine)

title

0 1
  N   -2.346918027   0.000000000   0.094855168
  H   -1.480809280   0.000000000  -0.434408038
  H   -2.878195419  -0.813163079  -0.189038305
  H   -2.878195419   0.813163079  -0.189038305
  H    0.647837970  -2.022090054  -0.423688213
  H    1.871099267  -1.217110107   0.583463825
  H    0.163301612  -1.227971715   1.093072083
  H    0.647837970   2.022090054  -0.423688213
  H    1.871099267   1.217110107   0.583463825
  H    0.163301612   1.227971715   1.093072083
  C    0.835085577  -1.174162596   0.230666698
  O    0.603009853   0.000000000  -0.522658730
  C    0.835085577   1.174162596   0.230666698

2.019_NH-O__ammonia--dimethylether_095.wfx

