%nprocs=4
%mem=2GB
#p hf aug-cc-pvdz output=wfx scf=(conver=6) int=(grid=ultrafine)

title

0 1
  N   -2.378616155  -0.173103490   0.000000000
  H   -1.607872674   0.487848479   0.000000000
  H   -2.948252456   0.023192728   0.813288088
  H   -2.948252456   0.023192728  -0.813288088
  H    1.211474713  -1.762173233  -0.874267493
  H    1.211474713  -1.762173233   0.874267493
  H   -0.318790135  -1.443259527   0.000000000
  H    2.187394982   0.397631822   0.000000000
  C    0.757232970  -1.289311880   0.000000000
  C    1.102944425   0.167032101   0.000000000
  O    0.303571292   1.070140397   0.000000000

2.014_NH-O__ammonia--acetaldehyde_090.wfx

