%nprocs=4
%mem=2GB
#p hf aug-cc-pvdz output=wfx scf=(conver=6) int=(grid=ultrafine)

title

0 1
  N    2.826717292  -0.007311558   0.229118221
  H    2.006428970  -0.536734886  -0.055669142
  H    3.278900934  -0.523725249   0.972873417
  H    3.468618440   0.003837290  -0.553363664
  H   -2.251349827   0.617717174   0.621894829
  H   -2.004422782  -1.086228515   0.446974791
  H    0.117481450   1.754653250  -1.165757047
  H    1.117672497   1.539812139   0.264119303
  H   -0.546240178   2.167101631   0.421348472
  O    0.359677246  -0.905347376  -0.290507756
  C   -0.362999543   0.037377815  -0.012562542
  N   -1.648849579  -0.148141373   0.389176537
  C    0.099591738   1.472771145  -0.112701604

2.015_NH-O__ammonia--acetamide_080.wfx

