%nprocs=4
%mem=2GB
#p hf aug-cc-pvdz output=wfx scf=(conver=6) int=(grid=ultrafine)

title

0 1
  N    2.942549562  -0.009879713   0.025692996
  H    2.086252920  -0.555572282  -0.007467359
  H    3.469718954  -0.318336430   0.832750088
  H    3.488666027  -0.249540486  -0.792067471
  H   -0.838429507   1.900155432   0.822264125
  H    0.672782033   1.382033082   0.022849388
  H   -0.761248400   1.848980403  -0.925329679
  H   -2.651096271  -1.325936825  -0.030216935
  H   -2.802359973   0.141598370   0.964398729
  C   -0.412099059   1.350543642  -0.018554018
  C   -0.908032669  -0.075026639  -0.010368864
  O   -0.151999484  -1.021738781  -0.038905365
  C   -2.405892730  -0.270293469   0.034575240
  H   -2.884278193   0.274905780  -0.780278350

2.017_NH-O__ammonia--acetone_105.wfx

