%nprocs=4
%mem=2GB
#p hf aug-cc-pvdz output=wfx scf=(conver=6) int=(grid=ultrafine)

title

0 1
N       -2.3469180270         0.0000000000         0.0948551680
H       -2.8781954190        -0.8131630790        -0.1890383050
H       -2.8781954190         0.8131630790        -0.1890383050
H       -1.4808092800         0.0000000000        -0.4344080380

2.019_NH-O__ammonia--dimethylether_1.wfx

