%nprocs=4
%mem=2GB
#p hf aug-cc-pvdz output=wfx scf=(conver=6) int=(grid=ultrafine)

title

0 1
  N   -2.919078130  -0.005279467   0.000000000
  H   -2.102771897   0.598398113   0.000000000
  H   -3.473183159   0.230195710   0.813481220
  H   -3.473183159   0.230195710  -0.813481220
  H    2.328249337   1.085668782   0.000000000
  H   -0.798340011  -1.399454574   0.000000000
  H    0.681937940  -1.880705291   0.876460187
  H    0.681937940  -1.880705291  -0.876460187
  O    0.055462564   1.036618867   0.000000000
  C    0.755787335   0.054599507   0.000000000
  O    2.105540701   0.144458729   0.000000000
  C    0.286303407  -1.368613484   0.000000000

2.016_NH-O__ammonia--aceticacid_100.wfx

