%nprocs=4
%mem=2GB
#p hf aug-cc-pvdz output=wfx scf=(conver=6) int=(grid=ultrafine)

title

0 1
  N   -2.378616155  -0.173103490   0.000000000
  H   -1.607872674   0.487848479   0.000000000
  H   -2.948252456   0.023192728   0.813288088
  H   -2.948252456   0.023192728  -0.813288088
  H    3.547684005  -1.050483111  -0.874267493
  H    3.547684005  -1.050483111   0.874267493
  H    2.017419157  -0.731569405   0.000000000
  H    4.523604274   1.109321944   0.000000000
  C    3.093442262  -0.577621758   0.000000000
  C    3.439153717   0.878722223   0.000000000
  O    2.639780584   1.781830519   0.000000000

2.014_NH-O__ammonia--acetaldehyde_200.wfx

