%nprocs=4
%mem=2GB
#p hf aug-cc-pvdz output=wfx scf=(conver=6) int=(grid=ultrafine)

title

0 1
  N    2.826717292  -0.007311558   0.229118221
  H    2.006428970  -0.536734886  -0.055669142
  H    3.278900934  -0.523725249   0.972873417
  H    3.468618440   0.003837290  -0.553363664
  H   -2.457193792   0.571640612   0.592540002
  H   -2.210266748  -1.132305077   0.417619964
  H   -0.088362516   1.708576688  -1.195111874
  H    0.911828532   1.493735577   0.234764476
  H   -0.752084144   2.121025069   0.391993645
  O    0.153833280  -0.951423938  -0.319862583
  C   -0.568843508  -0.008698747  -0.041917369
  N   -1.854693544  -0.194217935   0.359821710
  C   -0.106252228   1.426694583  -0.142056431

2.015_NH-O__ammonia--acetamide_090.wfx

