%nprocs=4
%mem=2GB
#p hf aug-cc-pvdz output=wfx scf=(conver=6) int=(grid=ultrafine)

title

0 1
  N   -2.378616155  -0.173103490   0.000000000
  H   -1.607872674   0.487848479   0.000000000
  H   -2.948252456   0.023192728   0.813288088
  H   -2.948252456   0.023192728  -0.813288088
  H    2.485770690  -1.373978621  -0.874267493
  H    2.485770690  -1.373978621   0.874267493
  H    0.955505842  -1.055064915   0.000000000
  H    3.461690960   0.785826434   0.000000000
  C    2.031528948  -0.901117268   0.000000000
  C    2.377240402   0.555226713   0.000000000
  O    1.577867270   1.458335009   0.000000000

2.014_NH-O__ammonia--acetaldehyde_150.wfx

