%nprocs=4
%mem=2GB
#p hf aug-cc-pvdz output=wfx scf=(conver=6) int=(grid=ultrafine)

title

0 1
  N   -2.346918027   0.000000000   0.094855168
  H   -1.480809280   0.000000000  -0.434408038
  H   -2.878195419  -0.813163079  -0.189038305
  H   -2.878195419   0.813163079  -0.189038305
  H    0.976862043  -2.022090054  -0.437622532
  H    2.200123340  -1.217110107   0.569529506
  H    0.492325685  -1.227971715   1.079137764
  H    0.976862043   2.022090054  -0.437622532
  H    2.200123340   1.217110107   0.569529506
  H    0.492325685   1.227971715   1.079137764
  C    1.164109650  -1.174162596   0.216732378
  O    0.932033926   0.000000000  -0.536593050
  C    1.164109650   1.174162596   0.216732378

2.019_NH-O__ammonia--dimethylether_110.wfx

