%nprocs=4
%mem=2GB
#p hf aug-cc-pvdz output=wfx scf=(conver=6) int=(grid=ultrafine)

title

0 1
  N    3.219629555  -0.632154438   0.639868370
  H    2.474939535  -0.928226606   0.016905524
  H    3.308037962  -1.335631672   1.362189912
  H    4.081883341  -0.644978177   0.109847531
  H   -2.265475691   0.199659630   1.613836920
  H   -2.934475336   0.702624254   0.046351931
  H   -3.409031448  -0.861684243   0.753903372
  H    1.014692625   1.765767815  -1.262171046
  H    1.658827635   1.300968048   0.329391504
  H    0.632715614   2.760617198   0.169624236
  O   -1.557783315  -0.863286246  -0.036388071
  C   -0.407989169  -0.249605600  -0.325616321
  O    0.489080370  -0.816004190  -0.891318354
  O   -0.393862697   1.025186495   0.078601673
  C    0.820746347   1.755745771  -0.192415352
  C   -2.602028309  -0.145929541   0.639413954

2.018_NH-O__ammonia--dimethylcarbonate_100.wfx

