%nprocs=4
%mem=2GB
#p hf aug-cc-pvdz output=wfx scf=(conver=6) int=(grid=ultrafine)

title

0 1
  N    3.219629555  -0.632154438   0.639868370
  H    2.474939535  -0.928226606   0.016905524
  H    3.308037962  -1.335631672   1.362189912
  H    4.081883341  -0.644978177   0.109847531
  H   -1.868303858   0.177215147   1.795481696
  H   -2.537303503   0.680179771   0.227996707
  H   -3.011859615  -0.884128726   0.935548148
  H    1.411864458   1.743323332  -1.080526270
  H    2.055999468   1.278523565   0.511036280
  H    1.029887447   2.738172715   0.351269012
  O   -1.160611482  -0.885730729   0.145256705
  C   -0.010817336  -0.272050083  -0.143971545
  O    0.886252203  -0.838448673  -0.709673578
  O    0.003309136   1.002742012   0.260246449
  C    1.217918180   1.733301288  -0.010770576
  C   -2.204856476  -0.168374024   0.821058730

2.018_NH-O__ammonia--dimethylcarbonate_080.wfx

