%nprocs=4
%mem=2GB
#p hf aug-cc-pvdz output=wfx scf=(conver=6) int=(grid=ultrafine)

title

0 1
  N   -2.378616155  -0.173103490   0.000000000
  H   -1.607872674   0.487848479   0.000000000
  H   -2.948252456   0.023192728   0.813288088
  H   -2.948252456   0.023192728  -0.813288088
  H    1.105283382  -1.794522784  -0.874267493
  H    1.105283382  -1.794522784   0.874267493
  H   -0.424981466  -1.475609078   0.000000000
  H    2.081203651   0.365282271   0.000000000
  C    0.651041639  -1.321661431   0.000000000
  C    0.996753094   0.134682550   0.000000000
  O    0.197379961   1.037790846   0.000000000

2.014_NH-O__ammonia--acetaldehyde_085.wfx

