%nprocs=4
%mem=2GB
#p hf aug-cc-pvdz output=wfx scf=(conver=6) int=(grid=ultrafine)

title

0 1
H       -2.6630377580         0.5255640510         0.5631851750
N       -2.0605375100        -0.2402944960         0.3304668830
C       -0.7746874740        -0.0547753080        -0.0712721960
H       -2.4161107130        -1.1783816380         0.3882651370
O       -0.0520106850        -0.9975004990        -0.3492174100
C       -0.3120961930         1.3806180220        -0.1714112580
H       -0.2942064810         1.6625001270        -1.2244667010
H       -0.9579281090         2.0749485080         0.3626388180
H        0.7059845660         1.4476590160         0.2054096490

2.015_NH-O__ammonia--acetamide_2.wfx

