%nprocs=4
%mem=2GB
#p hf aug-cc-pvdz output=wfx scf=(conver=6) int=(grid=ultrafine)

title

0 1
  N   -2.487845063  -0.124884945   0.000000000
  H   -3.063569341   0.049874018  -0.813971853
  H   -1.743326745   0.563239379   0.000000000
  H   -3.063569341   0.049874018   0.813971853
  H    0.050105833  -1.161082827   0.000000000
  H    1.567538077  -1.615688511  -0.875970984
  H    1.567538077  -1.615688511   0.875970984
  C    1.138234711  -1.126028571   0.000000000
  N    1.663255674   0.253143200   0.000000000
  O    0.818118557   1.107180194   0.000000000

2.023_NH-O__ammonia--nitrosomethane_110.wfx

