%nprocs=4
%mem=2GB
#p hf aug-cc-pvdz output=wfx scf=(conver=6) int=(grid=ultrafine)

title

0 1
  N   -2.487845063  -0.124884945   0.000000000
  H   -3.063569341   0.049874018  -0.813971853
  H   -1.743326745   0.563239379   0.000000000
  H   -3.063569341   0.049874018   0.813971853
  H   -0.648470159  -1.309430322   0.000000000
  H    0.868962085  -1.764036006  -0.875970984
  H    0.868962085  -1.764036006   0.875970984
  C    0.439658719  -1.274376066   0.000000000
  N    0.964679682   0.104795705   0.000000000
  O    0.119542565   0.958832699   0.000000000

2.023_NH-O__ammonia--nitrosomethane_080.wfx

