%nprocs=4
%mem=2GB
#p hf aug-cc-pvdz output=wfx scf=(conver=6) int=(grid=ultrafine)

title

0 1
H       -1.1687333140         1.2126780530         0.0000000000
C       -0.1865441190         0.7617995510         0.0000000000
C       -0.0739194530        -0.6245205910         0.0000000000
C        0.9672400130         1.5322157220         0.0000000000
O       -1.2356514810        -1.3566022650         0.0000000000
C        1.1764029340        -1.2326745420         0.0000000000
C        2.2249269820         0.9374105470         0.0000000000
H        0.8800528410         2.6096056460         0.0000000000
H       -1.0260822980        -2.2940173220         0.0000000000
H        1.2538589430        -2.3129826600         0.0000000000
C        2.3228668050        -0.4474380460         0.0000000000
H        3.1169237940         1.5464006750         0.0000000000
H        3.2926983450        -0.9244880190         0.0000000000

2.025_NH-O__ammonia--phenol_2.wfx

