%nprocs=4
%mem=2GB
#p hf aug-cc-pvdz output=wfx scf=(conver=6) int=(grid=ultrafine)

title

0 1
  N    2.454007545  -0.788140322  -0.020291977
  H    1.621910139  -0.523699452   0.493955136
  H    3.026729220  -1.361070326   0.585585206
  H    2.148845184  -1.370909285  -0.789125544
  H   -2.554979276  -0.703152658   0.665175198
  H   -2.070273996  -1.831500401  -0.630595793
  H   -1.108397214  -1.733682390   0.866367309
  H    0.407055054   2.486523055   0.636167025
  H   -0.799110408   2.331022520  -0.671784344
  H    0.828876960   1.598309520  -0.846675815
  C   -1.710127932  -1.166732947   0.152877253
  O   -0.930339840  -0.204596195  -0.522178444
  O   -0.425305678   0.681675270   0.525364739
  C    0.024424679   1.839955582  -0.151665183

2.020_NH-O__ammonia--dimethylperoxide_105.wfx

