%nprocs=4
%mem=2GB
#p hf aug-cc-pvdz output=wfx scf=(conver=6) int=(grid=ultrafine)

title

0 1
  N   -3.712708303   0.684110904   0.000000000
  H   -3.149425068  -0.158390879   0.000000000
  H   -4.312043763   0.652308240  -0.814685073
  H   -4.312043763   0.652308240   0.814685073
  H   -1.073044635   1.152767484   0.000000000
  H    3.212612473   1.486490106   0.000000000
  H    0.975741520   2.549695077   0.000000000
  H    1.349547622  -2.372893229   0.000000000
  H   -0.930393619  -2.353927891   0.000000000
  H    3.388387024  -0.984398588   0.000000000
  C    2.320615661   0.877499978   0.000000000
  C    1.062928692   1.472305153   0.000000000
  C   -0.090855440   0.701888982   0.000000000
  C    0.021769226  -0.684431160   0.000000000
  C    1.272091613  -1.292585111   0.000000000
  C    2.418555484  -0.507348615   0.000000000
  O   -1.139962802  -1.416512834   0.000000000

2.025_NH-O__ammonia--phenol_105.wfx

