%nprocs=4
%mem=2GB
#p hf aug-cc-pvdz output=wfx scf=(conver=6) int=(grid=ultrafine)

title

0 1
  N    3.274016695   0.059214175   0.000000000
  H    3.852544280  -0.101967192   0.814538171
  H    3.852544280  -0.101967192  -0.814538171
  H    2.547351328  -0.646626499   0.000000000
  H   -1.911667540   2.134537115   0.000000000
  H   -3.349700034  -0.194605947   0.000000000
  H    0.710830680   1.310285203   0.000000000
  H   -1.452898711  -2.164037229   0.000000000
  C   -2.279768104  -0.088262385   0.000000000
  C   -1.526324962   1.130833968   0.000000000
  C   -0.220105505   0.774113523   0.000000000
  O   -0.108043966  -0.586394093   0.000000000
  C   -1.372773026  -1.093345270   0.000000000

2.021_NH-O__ammonia--furan_110.wfx

