%nprocs=4
%mem=2GB
#p hf aug-cc-pvdz output=wfx scf=(conver=6) int=(grid=ultrafine)

title

0 1
  N    3.274016695   0.059214175   0.000000000
  H    3.852544280  -0.101967192   0.814538171
  H    3.852544280  -0.101967192  -0.814538171
  H    2.547351328  -0.646626499   0.000000000
  H   -1.428868396   2.123585769   0.000000000
  H   -2.866900890  -0.205557293   0.000000000
  H    1.193629824   1.299333857   0.000000000
  H   -0.970099567  -2.174988575   0.000000000
  C   -1.796968960  -0.099213731   0.000000000
  C   -1.043525818   1.119882622   0.000000000
  C    0.262693639   0.763162177   0.000000000
  O    0.374755178  -0.597345439   0.000000000
  C   -0.889973882  -1.104296616   0.000000000

2.021_NH-O__ammonia--furan_090.wfx

