%nprocs=4
%mem=2GB
#p hf aug-cc-pvdz output=wfx scf=(conver=6) int=(grid=ultrafine)

title

0 1
  N   -2.487845063  -0.124884945   0.000000000
  H   -3.063569341   0.049874018  -0.813971853
  H   -1.743326745   0.563239379   0.000000000
  H   -3.063569341   0.049874018   0.813971853
  H   -0.182752831  -1.210531992   0.000000000
  H    1.334679413  -1.665137676  -0.875970984
  H    1.334679413  -1.665137676   0.875970984
  C    0.905376047  -1.175477736   0.000000000
  N    1.430397010   0.203694035   0.000000000
  O    0.585259893   1.057731029   0.000000000

2.023_NH-O__ammonia--nitrosomethane_100.wfx

