%nprocs=4
%mem=2GB
#p hf aug-cc-pvdz output=wfx scf=(conver=6) int=(grid=ultrafine)

title

0 1
  N   -3.712708303   0.684110904   0.000000000
  H   -3.149425068  -0.158390879   0.000000000
  H   -4.312043763   0.652308240  -0.814685073
  H   -4.312043763   0.652308240   0.814685073
  H   -1.264421993   1.272588622   0.000000000
  H    3.021235115   1.606311244   0.000000000
  H    0.784364162   2.669516215   0.000000000
  H    1.158170264  -2.253072091   0.000000000
  H   -1.121770977  -2.234106753   0.000000000
  H    3.197009666  -0.864577450   0.000000000
  C    2.129238303   0.997321116   0.000000000
  C    0.871551334   1.592126291   0.000000000
  C   -0.282232798   0.821710120   0.000000000
  C   -0.169608132  -0.564610022   0.000000000
  C    1.080714255  -1.172763973   0.000000000
  C    2.227178126  -0.387527477   0.000000000
  O   -1.331340160  -1.296691696   0.000000000

2.025_NH-O__ammonia--phenol_095.wfx

