%nprocs=4
%mem=2GB
#p hf aug-cc-pvdz output=wfx scf=(conver=6) int=(grid=ultrafine)

title

0 1
  N    2.454007545  -0.788140322  -0.020291977
  H    1.621910139  -0.523699452   0.493955136
  H    3.026729220  -1.361070326   0.585585206
  H    2.148845184  -1.370909285  -0.789125544
  H   -2.944925146  -0.473557472   0.671157980
  H   -2.460219866  -1.601905216  -0.624613011
  H   -1.498343084  -1.504087204   0.872350091
  H    0.017109185   2.716118240   0.642149807
  H   -1.189056278   2.560617706  -0.665801562
  H    0.438931090   1.827904706  -0.840693033
  C   -2.100073802  -0.937137762   0.158860035
  O   -1.320285710   0.024998990  -0.516195662
  O   -0.815251548   0.911270456   0.531347521
  C   -0.365521190   2.069550768  -0.145682401

2.020_NH-O__ammonia--dimethylperoxide_125.wfx

