%nprocs=4
%mem=2GB
#p hf aug-cc-pvdz output=wfx scf=(conver=6) int=(grid=ultrafine)

title

0 1
  N   -3.712708303   0.684110904   0.000000000
  H   -3.149425068  -0.158390879   0.000000000
  H   -4.312043763   0.652308240  -0.814685073
  H   -4.312043763   0.652308240   0.814685073
  H   -1.168733314   1.212678053   0.000000000
  H    3.116923794   1.546400675   0.000000000
  H    0.880052841   2.609605646   0.000000000
  H    1.253858943  -2.312982660   0.000000000
  H   -1.026082298  -2.294017322   0.000000000
  H    3.292698345  -0.924488019   0.000000000
  C    2.224926982   0.937410547   0.000000000
  C    0.967240013   1.532215722   0.000000000
  C   -0.186544119   0.761799551   0.000000000
  C   -0.073919453  -0.624520591   0.000000000
  C    1.176402934  -1.232674542   0.000000000
  C    2.322866805  -0.447438046   0.000000000
  O   -1.235651481  -1.356602265   0.000000000

2.025_NH-O__ammonia--phenol_100.wfx

