%nprocs=4
%mem=2GB
#p hf aug-cc-pvdz output=wfx scf=(conver=6) int=(grid=ultrafine)

title

0 1
N        2.9154240050        -0.6367200990        -0.3277623820
H        2.0196422770        -0.8694213990         0.0932917870
H        3.1327644800        -1.3627181840        -0.9987356870
H        3.6160174160        -0.6927280130         0.4007585610

2.024_NH-O__ammonia--Nmethylacetamide_1.wfx

