%nprocs=4
%mem=2GB
#p hf aug-cc-pvdz output=wfx scf=(conver=6) int=(grid=ultrafine)

title

0 1
N        2.4540075450        -0.7881403220        -0.0202919770
H        2.1488451840        -1.3709092850        -0.7891255440
H        3.0267292200        -1.3610703260         0.5855852060
H        1.6219101390        -0.5236994520         0.4939551360

2.020_NH-O__ammonia--dimethylperoxide_1.wfx

