%nprocs=4
%mem=2GB
#p hf aug-cc-pvdz output=wfx scf=(conver=6) int=(grid=ultrafine)

title

0 1
  N    3.274016695   0.059214175   0.000000000
  H    3.852544280  -0.101967192   0.814538171
  H    3.852544280  -0.101967192  -0.814538171
  H    2.547351328  -0.646626499   0.000000000
  H   -2.273766898   2.142750625   0.000000000
  H   -3.711799392  -0.186392437   0.000000000
  H    0.348731322   1.318498713   0.000000000
  H   -1.814998070  -2.155823719   0.000000000
  C   -2.641867462  -0.080048875   0.000000000
  C   -1.888424320   1.139047478   0.000000000
  C   -0.582204864   0.782327033   0.000000000
  O   -0.470143324  -0.578180583   0.000000000
  C   -1.734872384  -1.085131760   0.000000000

2.021_NH-O__ammonia--furan_125.wfx

