%nprocs=4
%mem=2GB
#p hf aug-cc-pvdz output=wfx scf=(conver=6) int=(grid=ultrafine)

title

0 1
  H   -0.292583670  -0.139246108   1.877098911
  H    2.754520722   2.232070414   0.015039075
  H    1.039617097   1.924635204   1.780747916
  H    1.781438320  -1.633720046  -1.556326418
  H   -1.037862865  -2.092457594   0.590060884
  H    3.115641217   0.426520574  -1.646084773
  H   -0.072436816  -2.780997715  -0.583711544
  C    2.168333910   1.326051686   0.056449133
  C    1.205243531   1.150445245   1.044098338
  C    0.451151911  -0.011310767   1.103243498
  C    0.642548119  -1.032377940   0.163728233
  C    1.617676205  -0.853375533  -0.824374796
  C    2.369142926   0.310972383  -0.872497740
  N   -0.097621838  -2.205425276   0.241343256
  H   -3.617173682   2.944532757  -1.572802008
  H   -2.147075700   2.928402558  -0.614253274
  H   -3.733087518   2.860958967   0.208580190
  H   -2.534779546   0.656455796  -1.612672990
  C   -3.167119054   2.542355113  -0.662404378
  C   -3.109029586   1.050662472  -0.752855968
  O   -3.626556740   0.290811679   0.028426490

2.026_NH-O__aniline--acetaldehyde_150.wfx

