%nprocs=4
%mem=2GB
#p hf aug-cc-pvdz output=wfx scf=(conver=6) int=(grid=ultrafine)

title

0 1
N       -3.7127083030         0.6841109040         0.0000000000
H       -4.3120437630         0.6523082400        -0.8146850730
H       -4.3120437630         0.6523082400         0.8146850730
H       -3.1494250680        -0.1583908790         0.0000000000

2.025_NH-O__ammonia--phenol_1.wfx

