%nprocs=4
%mem=2GB
#p hf aug-cc-pvdz output=wfx scf=(conver=6) int=(grid=ultrafine)

title

0 1
  H   -0.042307224  -0.087113349   1.862837475
  H    2.842599627   2.450894172  -0.038430499
  H    1.078011144   2.094260338   1.667648144
  H    2.334788147  -1.593242177  -1.360446764
  H   -0.565235797  -2.151659950   0.630246460
  H    3.470566237   0.577971069  -1.537360930
  H    0.548108718  -2.843774494  -0.401802400
  C    2.348493485   1.494342212   0.045384150
  C    1.357391477   1.290722773   1.000206031
  C    0.720855045   0.064943289   1.112741241
  C    1.053375191  -0.991313754   0.255191254
  C    2.060830375  -0.785933793  -0.693477078
  C    2.698367865   0.441883246  -0.792806579
  N    0.409038568  -2.217027447   0.373249942
  H   -2.973126453   0.829322237   1.058714056
  H   -0.830218375  -0.862835506  -1.846389121
  H   -0.314814734   0.730853309  -1.269555130
  H   -1.800778108   0.592628102  -2.206322998
  O   -2.042484147  -1.144499055   0.415413898
  C   -1.936300805  -0.109669451  -0.196054335
  O   -2.516765005   1.032453707   0.230595371
  C   -1.174658781   0.092879140  -1.469719016

2.028_NH-O__aniline--aceticacid_080.wfx

