%nprocs=4
%mem=2GB
#p hf aug-cc-pvdz output=wfx scf=(conver=6) int=(grid=ultrafine)

title

0 1
  N   -3.712708303   0.684110904   0.000000000
  H   -3.149425068  -0.158390879   0.000000000
  H   -4.312043763   0.652308240  -0.814685073
  H   -4.312043763   0.652308240   0.814685073
  H   -0.211846520   0.613572360   0.000000000
  H    4.073810588   0.947294982   0.000000000
  H    1.836939634   2.010499953   0.000000000
  H    2.210745736  -2.912088353   0.000000000
  H   -0.069195504  -2.893123015   0.000000000
  H    4.249585138  -1.523593712   0.000000000
  C    3.181813776   0.338304854   0.000000000
  C    1.924126806   0.933110029   0.000000000
  C    0.770342674   0.162693858   0.000000000
  C    0.882967340  -1.223626284   0.000000000
  C    2.133289728  -1.831780235   0.000000000
  C    3.279753598  -1.046543739   0.000000000
  O   -0.278764688  -1.955707958   0.000000000

2.025_NH-O__ammonia--phenol_150.wfx

