%nprocs=4
%mem=2GB
#p hf aug-cc-pvdz output=wfx scf=(conver=6) int=(grid=ultrafine)

title

0 1
H       -2.7542757240         2.1501096660        -1.3855905430
C       -2.3042210960         1.7479320220        -0.4751929140
H       -1.2841777420         2.1339794670        -0.4270418090
C       -2.2461316270         0.2562393810        -0.5656445030
H       -2.8701895590         2.0665358760         0.3957916550
H       -1.6718815880        -0.1379672950        -1.4254615250
O       -2.7636587820        -0.5036114120         0.2156379550

2.026_NH-O__aniline--acetaldehyde_2.wfx

