%nprocs=4
%mem=2GB
#p hf aug-cc-pvdz output=wfx scf=(conver=6) int=(grid=ultrafine)

title

0 1
  N    3.274016695   0.059214175   0.000000000
  H    3.852544280  -0.101967192   0.814538171
  H    3.852544280  -0.101967192  -0.814538171
  H    2.547351328  -0.646626499   0.000000000
  H   -1.308168610   2.120847932   0.000000000
  H   -2.746201104  -0.208295130   0.000000000
  H    1.314329610   1.296596020   0.000000000
  H   -0.849399781  -2.177726412   0.000000000
  C   -1.676269174  -0.101951568   0.000000000
  C   -0.922826032   1.117144785   0.000000000
  C    0.383393425   0.760424340   0.000000000
  O    0.495454964  -0.600083276   0.000000000
  C   -0.769274096  -1.107034453   0.000000000

2.021_NH-O__ammonia--furan_085.wfx

