%nprocs=4
%mem=2GB
#p hf aug-cc-pvdz output=wfx scf=(conver=6) int=(grid=ultrafine)

title

0 1
H       -0.0180211510        -0.1709165340         1.7572516020
C       -0.8345392630        -0.2743338360         1.0569026700
C       -1.3261416290        -1.5288607300         0.7339465680
C       -1.3840401490         0.8769636980         0.4788978160
C       -2.3854255490        -1.6714447330        -0.1563107850
H       -0.8784830700        -2.4040201640         1.1843668390
C       -2.4591860700         0.7289806780        -0.4039707260
N       -0.8810302650         2.1310186620         0.8046282720
C       -2.9513592140        -0.5302788940        -0.7134071070
H       -2.7660745780        -2.6508775670        -0.4052232410
H       -2.9001454550         1.6082544260        -0.8556280330
H       -1.1796770530         2.8742220770         0.1950467190
H        0.1183609470         2.1503393760         0.9491627820
H       -3.7796026990        -0.6195169050        -1.4027744180

2.034_NH-O__aniline--methylacetate_1.wfx

