%nprocs=4
%mem=2GB
#p hf aug-cc-pvdz output=wfx scf=(conver=6) int=(grid=ultrafine)

title

0 1
H        2.0535411670        -1.9486571710        -0.4760728080
C        1.2047688880        -1.3223327350        -0.1966513710
H        0.6635646680        -1.0728436620        -1.1255970590
H        0.5459737960        -1.9188848750         0.4332246570
N        1.6719390760        -0.1619994870         0.5355805620
C        2.5146109930         0.7069850290        -0.2684048660
H        0.8755309470         0.3625950390         0.8720202550
H        2.0391062440         1.0368065200        -1.2051407350
H        2.7841186950         1.5919031540         0.3055513250
H        3.4361515130         0.1844941390        -0.5309354850

2.037_NH-O__dimethylamine--acetaldehyde_1.wfx

