%nprocs=4
%mem=2GB
#p hf aug-cc-pvdz output=wfx scf=(conver=6) int=(grid=ultrafine)

title

0 1
H        0.9155192960        -1.0869980460         1.3021003790
C        0.1011098370        -0.6513251000         0.7395095790
C       -1.0429518820        -1.3927954560         0.4788421270
C        0.2015290700         0.6788053680         0.3088584580
C       -2.1142331950        -0.8319905820        -0.2056350900
H       -1.0983781330        -2.4161994350         0.8237823530
C       -0.8836860670         1.2389687290        -0.3755655250
N        1.3336245880         1.4304175490         0.5997733510
H       -3.0034101050        -1.4114419090        -0.4046678480
C       -2.0236249120         0.4911453880        -0.6246542200
H       -0.8257567020         2.2661255960        -0.7113038500
H        2.1920650520         0.9021273880         0.6391278770
H        1.4392734620         2.2649861890         0.0472585120
H       -2.8477100940         0.9462903540        -1.1564412550

2.036_NH-O__aniline--water_1.wfx

