%nprocs=4
%mem=2GB
#p hf aug-cc-pvdz output=wfx scf=(conver=6) int=(grid=ultrafine)

title

0 1
H       -0.1645087820        -0.6104527120         1.4658481740
C       -1.0486193730        -0.3784242180         0.8885077530
C       -2.1392633440        -1.2343166530         0.9049166920
C       -1.0774898770         0.7960762480         0.1253372900
C       -3.2831381270        -0.9471709220         0.1683036920
H       -2.0935227980        -2.1354342560         1.5011596440
C       -2.2317649300         1.0807393080        -0.6138700990
N       -0.0023482800         1.6737425730         0.1415719630
H       -4.1303405660        -1.6167046010         0.1847575260
C       -3.3170982540         0.2183771240        -0.5890514670
H       -2.2724631990         1.9857311570        -1.2062314230
H        0.0447576370         2.3118984760        -0.6343045960
H        0.8929499010         1.2611235570         0.3585056130
H       -4.1971747030         0.4601857700        -1.1690204010

2.032_NH-O__aniline--dimethylperoxide_1.wfx

