%nprocs=4
%mem=2GB
#p hf aug-cc-pvdz output=wfx scf=(conver=6) int=(grid=ultrafine)

title

0 1
C        1.4331256040         0.9098389320        -1.7589943660
C        2.0460367530         0.4051851600        -0.4736815940
H        0.3488033120         0.8893494540        -1.6516771090
H        1.7404292550         1.9400400060        -1.9163819380
H        1.7075430960         0.3116835980        -2.6258142980
N        2.4789479760        -0.8783717780        -0.4930768240
O        2.1329171440         1.1075262720         0.5259774710
H        2.2859510540        -1.4286470990        -1.3099742460
C        2.9645345100        -1.5513630410         0.6952585990
H        2.1520881760        -2.0124440820         1.2604821470
H        3.6799107940        -2.3202254590         0.4130648200
H        3.4531612400        -0.8215645270         1.3332452650

2.035_NH-O__aniline--Nmethylacetamide_2.wfx

