%nprocs=4
%mem=2GB
#p hf aug-cc-pvdz output=wfx scf=(conver=6) int=(grid=ultrafine)

title

0 1
  H    0.915519296  -1.086998046   1.302100379
  H   -3.003410105  -1.411441909  -0.404667848
  H   -1.098378133  -2.416199435   0.823782353
  H   -0.825756702   2.266125596  -0.711303850
  H    2.192065052   0.902127388   0.639127877
  H   -2.847710094   0.946290354  -1.156441255
  H    1.439273462   2.264986189   0.047258512
  C   -2.114233195  -0.831990582  -0.205635090
  C   -1.042951882  -1.392795456   0.478842127
  C    0.101109837  -0.651325100   0.739509579
  C    0.201529070   0.678805368   0.308858458
  C   -0.883686067   1.238968729  -0.375565525
  C   -2.023624912   0.491145388  -0.624654220
  N    1.333624588   1.430417549   0.599773351
  O    2.928644359  -0.650941123  -0.566246448
  H    3.404437835  -1.481809426  -0.634308822
  H    1.999925310  -0.876731851  -0.687511848

2.036_NH-O__aniline--water_090.wfx

