%nprocs=4
%mem=2GB
#p hf aug-cc-pvdz output=wfx scf=(conver=6) int=(grid=ultrafine)

title

0 1
H       -1.6197737420        -1.6122236660         1.2389003660
N       -1.0824241680        -1.0352897270         0.6209013660
H       -0.0970220690        -1.2130469300         0.5266570910
C       -1.6397093410        -0.0103025740        -0.0744263770
C       -3.1250499260         0.1976523370         0.1244637420
O       -0.9874096470         0.7030234460        -0.8170085660
H       -3.5778406530        -0.5156378860         0.8098412920
H       -3.6165104280         0.1261689660        -0.8437911710
H       -3.2854095120         1.2066293370         0.4993916910

2.038_NH-O__dimethylamine--acetamide_2.wfx

