%nprocs=4
%mem=2GB
#p hf aug-cc-pvdz output=wfx scf=(conver=6) int=(grid=ultrafine)

title

0 1
  H   -3.772379435   0.360512576   0.462773268
  H   -3.137908367  -1.286051202   0.554114917
  H   -2.830858266  -0.131792698   1.867478198
  H   -0.889803167  -0.178560189   0.544678060
  H   -0.745232388   0.396166046  -1.696396523
  H   -2.482392819   0.706801586  -1.742163676
  H   -1.893942521  -0.953993264  -1.608033497
  C   -2.915174353  -0.232605951   0.786281065
  N   -1.708681574   0.263416287   0.149431163
  C   -1.706482844   0.084742526  -1.292309525
  H    3.823447733  -1.987729832  -0.317552079
  H    2.466731749  -2.721280284   0.579384346
  H    2.190836066  -2.034237994  -1.043642240
  H    2.876978579   2.318034398  -0.388136855
  H    3.188891061   1.600375074   1.213981617
  H    1.518385584   1.656934186   0.560062337
  C    2.753043047  -1.931910948  -0.113591017
  O    2.425236667  -0.730293556   0.550188310
  O    2.807707092   0.331649460  -0.380387665
  C    2.574621996   1.542438634   0.313704764

2.043_NH-O__dimethylamine--dimethylperoxide_150.wfx

