%nprocs=4
%mem=2GB
#p hf aug-cc-pvdz output=wfx scf=(conver=6) int=(grid=ultrafine)

title

0 1
H       -3.1731920270        -1.4649505920        -1.5103368520
C       -2.7349445180        -0.4879100220        -1.2994539140
H       -1.7006093600        -0.5041717730        -1.6389667360
N       -2.7764219660        -0.2329848180         0.1301265810
H       -3.2826053530         0.2566988890        -1.8973205420
C       -4.1263409860        -0.1142942210         0.6517924140
H       -2.2402885190         0.5977956630         0.3398573290
H       -4.6428995520        -1.0705959950         0.5533631300
H       -4.0919424660         0.1372703800         1.7108669610
H       -4.7358499940         0.6439953060         0.1360444430

2.047_NH-O__dimethylamine--phenol_1.wfx

