%nprocs=4
%mem=2GB
#p hf aug-cc-pvdz output=wfx scf=(conver=6) int=(grid=ultrafine)

title

0 1
  N   -2.252647713   0.386835207  -0.396620701
  H   -1.471892960  -0.042014519  -0.882198683
  H   -3.001572486   0.509464359  -1.064471532
  C   -2.680710039  -0.465200773   0.710877752
  H   -3.494610801   0.015860954   1.253703084
  H   -3.014530599  -1.468202790   0.419302189
  H   -1.851823790  -0.586646005   1.408135952
  H    3.005413823  -0.003056632   1.143403451
  H    2.687177643  -1.528026240   0.389775486
  H   -0.015962122   1.527175311   0.214891846
  H    1.568297170   1.803302474   0.992510882
  H    1.382025021   1.958477859  -0.760189511
  O    0.681343661  -0.759066303  -0.855935630
  C    1.356159663  -0.064272145  -0.114519751
  N    2.435998700  -0.567043437   0.542211523
  C    1.060461780   1.399378167   0.118794267

2.049_NH-O__methylamine--acetamide_105.wfx

