%nprocs=4
%mem=2GB
#p hf aug-cc-pvdz output=wfx scf=(conver=6) int=(grid=ultrafine)

title

0 1
H       -1.6195525960        -2.0288287540         0.3092615180
C       -1.3462481770        -1.1034823220         0.8215030600
H       -1.8667410210        -1.1127131410         1.7800884310
H       -0.2704256330        -1.0753923340         0.9736516770
C       -1.7986536150         0.0709477260        -0.0117827510
C       -3.2898904920         0.2693464020        -0.1504473240
O       -1.0124651990         0.8208582980        -0.5489520870
H       -3.7695881950        -0.6535093380        -0.4790454210
H       -3.5010116150         1.0706966510        -0.8518734190
H       -3.7159176580         0.5161896320         0.8239205970

2.040_NH-O__dimethylamine--acetone_2.wfx

