%nprocs=4
%mem=2GB
#p hf aug-cc-pvdz output=wfx scf=(conver=6) int=(grid=ultrafine)

title

0 1
N       -1.7382575900        -0.0363422730        -0.6996631510
H       -2.4121238600         0.2666612780        -1.3896488230
H       -0.9691515280         0.6232445350        -0.7092539010
C       -2.3433216570        -0.0840295520         0.6302629890
H       -3.1478013980        -0.8192218180         0.6413155930
H       -1.5946736460        -0.4112870840         1.3517700860
H       -2.7506342220         0.8692155270         0.9867975310

2.048_NH-O__methylamine--acetaldehyde_1.wfx

