%nprocs=4
%mem=2GB
#p hf aug-cc-pvdz output=wfx scf=(conver=6) int=(grid=ultrafine)

title

0 1
  H   -3.772379435   0.360512576   0.462773268
  H   -3.137908367  -1.286051202   0.554114917
  H   -2.830858266  -0.131792698   1.867478198
  H   -0.889803167  -0.178560189   0.544678060
  H   -0.745232388   0.396166046  -1.696396523
  H   -2.482392819   0.706801586  -1.742163676
  H   -1.893942521  -0.953993264  -1.608033497
  C   -2.915174353  -0.232605951   0.786281065
  N   -1.708681574   0.263416287   0.149431163
  C   -1.706482844   0.084742526  -1.292309525
  H    2.828935783  -1.822209821  -0.319205154
  H    1.472219799  -2.555760273   0.577731271
  H    1.196324116  -1.868717984  -1.045295315
  H    1.882466629   2.483554409  -0.389789930
  H    2.194379111   1.765895085   1.212328542
  H    0.523873634   1.822454196   0.558409262
  C    1.758531097  -1.766390937  -0.115244092
  O    1.430724717  -0.564773546   0.548535235
  O    1.813195142   0.497169471  -0.382040740
  C    1.580110046   1.707958645   0.312051689

2.043_NH-O__dimethylamine--dimethylperoxide_105.wfx

