%nprocs=4
%mem=2GB
#p hf aug-cc-pvdz output=wfx scf=(conver=6) int=(grid=ultrafine)

title

0 1
H        4.1026973250         0.4155139840         0.1946605230
C        3.3764738840         0.0759959110        -0.5459383900
N        2.0405645480         0.1160455950         0.0235777860
H        3.6853607990        -0.9273480810        -0.8767189830
H        3.4323898940         0.7487846800        -1.4003293330
C        1.8613434830        -0.8232954720         1.1166969960
H        1.3472963730        -0.0628327510        -0.6913863480
H        0.8327196180        -0.7840442500         1.4735813130
H        2.0917224990        -1.8653698610         0.8478989910
H        2.5104551840        -0.5465668400         1.9492463300

2.045_NH-O__dimethylamine--methylacetate_1.wfx

