%nprocs=4
%mem=2GB
#p hf aug-cc-pvdz output=wfx scf=(conver=6) int=(grid=ultrafine)

title

0 1
H       -2.5599106330         1.3601348640        -1.7573064180
C       -2.0422415310         1.3319720270        -0.7968300140
H       -0.9730444020         1.4033375280        -0.9924335040
N       -2.3369856960         0.0817951870        -0.1174143950
H       -2.3440358820         2.2247876730        -0.2293264250
C       -3.7341113370        -0.0418420740         0.2618375430
H       -1.7412028670        -0.0073388910         0.6957284990
H       -4.3555262620        -0.0937230530        -0.6339279240
H       -3.8828375950        -0.9621804820         0.8246903890
H       -4.1013018590         0.7976690920         0.8712578370

2.041_NH-O__dimethylamine--dimethylcarbonate_1.wfx

