%nprocs=4
%mem=2GB
#p hf aug-cc-pvdz output=wfx scf=(conver=6) int=(grid=ultrafine)

title

0 1
H       -2.3714858920         1.6613581850         0.4702338360
C       -1.3521446570         1.6769146190         0.0810530300
O       -1.0221988360         0.4472376330        -0.5270601240
H       -1.2719705470         2.4139966010        -0.7162331580
H       -0.6517377430         1.9208304040         0.8820432100
O       -1.1269182290        -0.5430283630         0.5443322840
C       -0.9033906260        -1.7950078790        -0.0760678600
H        0.0976608740        -1.8479907810        -0.5051660610
H       -1.6599417980        -1.9935205310        -0.8373623870
H       -0.9983314370        -2.5173696770         0.7331436090

2.054_NH-O__methylamine--dimethylperoxide_2.wfx

