%nprocs=4
%mem=2GB
#p hf aug-cc-pvdz output=wfx scf=(conver=6) int=(grid=ultrafine)

title

0 1
N       -2.3204492170        -0.0460319210        -0.6422052800
H       -2.9953795440        -0.4526622570        -1.2754816990
H       -1.4899009490        -0.6270537540        -0.6601751450
C       -2.8576890610         0.0206586420         0.7151717720
H       -3.1486256500        -0.9451170090         1.1452686260
H       -3.7301237420         0.6738464040         0.7343366210
H       -2.1090180040         0.4606147840         1.3741597850

2.051_NH-O__methylamine--acetone_1.wfx

