%nprocs=4
%mem=2GB
#p hf aug-cc-pvdz output=wfx scf=(conver=6) int=(grid=ultrafine)

title

0 1
H       -1.8616280410         1.1347119820         1.6151241970
C       -2.4502827360         1.0052691740         0.7101060070
H       -3.0514419580         1.8889977290         0.5249886450
H       -3.0891821310         0.1315158680         0.8129034980
O       -1.5988981520         0.8832930490        -0.4394589320
C       -0.7224522390        -0.1213970490        -0.5155294940
O        0.0105619920        -0.2555489430        -1.4583611340
O       -0.7696941310        -0.9216744120         0.5556939070
C        0.1618846680        -2.0245407820         0.5554411680
H        0.0084645750        -2.6379800140        -0.3286193800
H       -0.0659708770        -2.5866483380         1.4545061590
H        1.1825573060        -1.6501457560         0.5753607880

2.052_NH-O__methylamine--dimethylcarbonate_2.wfx

