%nprocs=4
%mem=2GB
#p hf aug-cc-pvdz output=wfx scf=(conver=6) int=(grid=ultrafine)

title

0 1
H        1.3525627850         1.8824748800         0.8266120950
C        1.5810858480         1.1721925240         0.0360217310
O        1.1522926890        -0.0997636920         0.4722064080
H        1.0604994070         1.4748096170        -0.8791832670
H        2.6596214870         1.1834653510        -0.1552495710
C        1.3922708870        -1.1136772860        -0.4830310420
H        0.8784646090        -0.8989624870        -1.4260512740
H        2.4637078410        -1.2213184330        -0.6827272550
H        1.0046094470        -2.0428185110        -0.0751058880

2.053_NH-O__methylamine--dimethylether_2.wfx

