%nprocs=4
%mem=2GB
#p hf aug-cc-pvdz output=wfx scf=(conver=6) int=(grid=ultrafine)

title

0 1
H       -2.1207686290         0.2552088510         2.0229226530
C       -2.6922805080        -0.1250904350         1.1805168030
H       -3.7169935610         0.2538536090         1.2383526610
H       -2.7169869400        -1.2185487370         1.2263333080
O       -2.0526457870         0.3213736070         0.0000000000
C       -2.6922805080        -0.1250904350        -1.1805168030
H       -3.7169935610         0.2538536090        -1.2383526610
H       -2.7169869400        -1.2185487370        -1.2263333080
H       -2.1207686290         0.2552088510        -2.0229226530

2.060_NH-O__Nmethylacetamide--dimethylether_2.wfx

