%nprocs=4
%mem=2GB
#p hf aug-cc-pvdz output=wfx scf=(conver=6) int=(grid=ultrafine)

title

0 1
C        0.9223100710        -1.7970096870         0.0000000000
H        1.2227924400        -2.3667880560        -0.8775542760
C        1.6674959190        -0.4759017300         0.0000000000
H        1.2227924400        -2.3667880560         0.8775542760
H       -0.1591001480        -1.6786153650         0.0000000000
N        0.8929538020         0.6338322980         0.0000000000
O        2.8880298480        -0.4273437570         0.0000000000
C        1.4826529570         1.9570004380         0.0000000000
H       -0.1126818230         0.5417409100         0.0000000000
H        2.1089052760         2.1075414250        -0.8792299040
H        0.6838042340         2.6940537470         0.0000000000
H        2.1089052760         2.1075414250         0.8792299040

2.060_NH-O__Nmethylacetamide--dimethylether_1.wfx

