%nprocs=4
%mem=2GB
#p hf aug-cc-pvdz output=wfx scf=(conver=6) int=(grid=ultrafine)

title

0 1
C        1.0983413170        -1.1097882460        -1.4684721420
C        2.1361320780        -0.7091778730        -0.4407613280
H        0.2723773850        -1.6037545420        -0.9579411600
H        0.7009768790        -0.2644996390        -2.0260521540
H        1.5454498130        -1.8233662720        -2.1555324960
O        2.8924741310        -1.5219271110         0.0656556990
N        2.1665709840         0.6094529100        -0.1155988750
H        1.4240723610         1.2070430070        -0.4372047500
C        3.0224905110         1.0946123870         0.9479348520
H        2.7013439650         0.7314167670         1.9268714550
H        3.0030731730         2.1813214090         0.9480878990
H        4.0425572950         0.7534568810         0.7889618160

2.064_NH-O__Nmethylacetamide--phenol_1.wfx

