%nprocs=4
%mem=2GB
#p hf aug-cc-pvdz output=wfx scf=(conver=6) int=(grid=ultrafine)

title

0 1
C       -0.4481070580         1.8252081620         0.0000000000
H       -0.8510970830         2.3281012420        -0.8774412410
C       -0.9325649660         0.3887611600         0.0000000000
H       -0.8510970830         2.3281012420         0.8774412410
H        0.6363477640         1.9126198750         0.0000000000
N        0.0357884310        -0.5578902540         0.0000000000
O       -2.1216284320         0.1092880530         0.0000000000
C       -0.2967720040        -1.9678591670         0.0000000000
H        1.0046216350        -0.2831355790         0.0000000000
H       -0.8840483690        -2.2320829090        -0.8792799750
H       -0.8840483690        -2.2320829090         0.8792799750
H        0.6252401050        -2.5433511690         0.0000000000

2.065_NH-O__Nmethylacetamide--water_1.wfx

