%nprocs=4
%mem=2GB
#p hf aug-cc-pvdz output=wfx scf=(conver=6) int=(grid=ultrafine)

title

0 1
  C    1.599720828   0.000000000   0.083087945
  O    1.169994748   0.000000000   1.219113350
  O    0.823461767   0.000000000  -0.997211239
  H   -0.147025393   0.000000000  -0.696476555
  C    3.066436873   0.000000000  -0.257602455
  H    3.658715227   0.000000000   0.650926367
  H    3.304153809  -0.876711766  -0.858800866
  H    3.304153809   0.876711766  -0.858800866
  H   -2.660124058  -1.279334452  -1.152804829
  H   -3.123752745  -1.268217557   0.554368382
  H   -1.636670185  -2.085955939   0.036976867
  H   -1.013652695   0.000000000   0.913261331
  H   -1.636670185   2.085955939   0.036976867
  H   -2.660124058   1.279334452  -1.152804829
  H   -3.123752745   1.268217557   0.554368382
  C   -2.273324077  -1.220485938  -0.135631108
  N   -1.487465829   0.000000000   0.015955065
  C   -2.273324077   1.220485938  -0.135631108

3.004_OH-N__aceticacid--dimethylamine_090.wfx

