%nprocs=4
%mem=2GB
#p hf aug-cc-pvdz output=wfx scf=(conver=6) int=(grid=ultrafine)

title

0 1
  C    1.599720828   0.000000000   0.083087945
  O    1.169994748   0.000000000   1.219113350
  O    0.823461767   0.000000000  -0.997211239
  H   -0.147025393   0.000000000  -0.696476555
  C    3.066436873   0.000000000  -0.257602455
  H    3.658715227   0.000000000   0.650926367
  H    3.304153809  -0.876711766  -0.858800866
  H    3.304153809   0.876711766  -0.858800866
  H   -3.553751015  -1.279334452  -0.677850416
  H   -4.017379702  -1.268217557   1.029322796
  H   -2.530297142  -2.085955939   0.511931280
  H   -1.907279652   0.000000000   1.388215744
  H   -2.530297142   2.085955939   0.511931280
  H   -3.553751015   1.279334452  -0.677850416
  H   -4.017379702   1.268217557   1.029322796
  C   -3.166951034  -1.220485938   0.339323306
  N   -2.381092786   0.000000000   0.490909478
  C   -3.166951034   1.220485938   0.339323306

3.004_OH-N__aceticacid--dimethylamine_150.wfx

