%nprocs=4
%mem=2GB
#p hf aug-cc-pvdz output=wfx scf=(conver=6) int=(grid=ultrafine)

title

0 1
  C   -1.847940802   0.029706972  -0.103185412
  O   -1.300043862  -0.576899105  -0.992492110
  O   -1.207286385   0.464195393   0.992954030
  H   -0.257692874   0.218772560   0.920625834
  C   -3.307270073   0.390103956  -0.080573142
  H   -3.775712834  -0.019421015   0.813258545
  H   -3.795174590   0.004583216  -0.968758955
  H   -3.416672861   1.472943550  -0.035106854
  H    0.604323574  -1.695902293  -0.718882590
  H    2.246426710  -1.898778780  -0.029747604
  H    0.810593553  -2.219856393   0.959014285
  C    1.219971923  -1.594971566   0.172976745
  N    1.166000322  -0.204041778   0.672022059
  N    1.805322988   0.619507859   0.020170869
  N    2.363091999   1.449285916  -0.497983346

3.007_OH-N__aceticacid--methylazide_080.wfx

