%nprocs=4
%mem=2GB
#p hf aug-cc-pvdz output=wfx scf=(conver=6) int=(grid=ultrafine)

title

0 1
  C    1.176313769   0.088121290   0.030200439
  O    0.672948322   1.176240815   0.217487640
  O    0.496647972  -1.055816157   0.081086722
  H   -0.467538763  -0.848189572   0.298263018
  C    2.633769353  -0.121133504  -0.285316637
  H    3.145986270   0.834074498  -0.322519011
  H    3.086159370  -0.758159649   0.473739971
  H    2.733750015  -0.636676755  -1.239644515
  N   -2.091828549  -0.144086943   0.603229195
  H   -1.725715416   0.700745498   1.026899072
  H   -2.743253522  -0.566493803   1.251383094
  C   -2.738908243   0.172383162  -0.676473172
  H   -3.075932179  -0.748345799  -1.149013431
  H   -3.593061636   0.847306658  -0.583316124
  H   -2.004401905   0.638830860  -1.329523376

3.006_OH-N__aceticacid--methylamine_105.wfx

