%nprocs=4
%mem=2GB
#p hf aug-cc-pvdz output=wfx scf=(conver=6) int=(grid=ultrafine)

title

0 1
  C   -0.700424167  -0.088425071   0.000000000
  O   -0.200417242  -1.193476359   0.000000000
  O    0.006697308   1.042148336   0.000000000
  H    0.981157633   0.813814638   0.000000000
  C   -2.184085832   0.164587678   0.000000000
  H   -2.720405660  -0.777936826   0.000000000
  H   -2.457236611   0.750352723  -0.876794639
  H   -2.457236611   0.750352723   0.876794639
  N    3.358422776  -0.342180807   0.000000000
  H    3.949000686  -0.269239855   0.818251411
  H    3.949000686  -0.269239855  -0.818251411
  H    2.921858604  -1.259217974   0.000000000

3.002_OH-N__aceticacid--ammonia_150.wfx

