%nprocs=4
%mem=2GB
#p hf aug-cc-pvdz output=wfx scf=(conver=6) int=(grid=ultrafine)

title

0 1
H        1.2592342400        -1.7210615660         0.3054199340
C        2.3046518800        -1.4402573790         0.3620475630
H        2.6177322470        -1.2610357800         1.3869220960
O        2.5023304190        -0.2046833760        -0.4106305640
H        2.9481820900        -2.1663046890        -0.1183738150
C        1.7636005470         0.7803982940        -0.0915808640
N        1.1179884060         1.7028933940         0.1689621250

3.008_OH-N__aceticacid--methylcyanate_2.wfx

