%nprocs=4
%mem=2GB
#p hf aug-cc-pvdz output=wfx scf=(conver=6) int=(grid=ultrafine)

title

0 1
C       -1.9532827010         0.0320881660        -0.0448213000
C       -3.3295389700         0.6379837820         0.0166573450
O       -1.7111104520        -1.0756034190        -0.4644905330
O       -1.0154743900         0.8640807400         0.4225171520
H       -4.0602266080        -0.0665895910        -0.3648355660
H       -3.3544677910         1.5558119090        -0.5694741230
H       -3.5691868880         0.9053075860         1.0450373220
H       -0.1244412810         0.4280224760         0.3559427950

3.005_OH-N__aceticacid--dimethyldiazene_1.wfx

