%nprocs=4
%mem=2GB
#p hf aug-cc-pvdz output=wfx scf=(conver=6) int=(grid=ultrafine)

title

0 1
  C   -0.700424167  -0.088425071   0.000000000
  O   -0.200417242  -1.193476359   0.000000000
  O    0.006697308   1.042148336   0.000000000
  H    0.981157633   0.813814638   0.000000000
  C   -2.184085832   0.164587678   0.000000000
  H   -2.720405660  -0.777936826   0.000000000
  H   -2.457236611   0.750352723  -0.876794639
  H   -2.457236611   0.750352723   0.876794639
  N    2.962211919  -0.149514900   0.000000000
  H    3.552789829  -0.076573948   0.818251411
  H    3.552789829  -0.076573948  -0.818251411
  H    2.525647746  -1.066552066   0.000000000

3.002_OH-N__aceticacid--ammonia_125.wfx

