%nprocs=4
%mem=2GB
#p hf aug-cc-pvdz output=wfx scf=(conver=6) int=(grid=ultrafine)

title

0 1
C       -0.7004241670        -0.0884250710         0.0000000000
O       -0.2004172420        -1.1934763590         0.0000000000
O        0.0066973080         1.0421483360         0.0000000000
C       -2.1840858320         0.1645876780         0.0000000000
H        0.9811576330         0.8138146380         0.0000000000
H       -2.7204056600        -0.7779368260         0.0000000000
H       -2.4572366110         0.7503527230        -0.8767946390
H       -2.4572366110         0.7503527230         0.8767946390

3.002_OH-N__aceticacid--ammonia_1.wfx

