%nprocs=4
%mem=2GB
#p hf aug-cc-pvdz output=wfx scf=(conver=6) int=(grid=ultrafine)

title

0 1
C        1.5997208280         0.0000000000         0.0830879450
O        0.8234617670         0.0000000000        -0.9972112390
O        1.1699947480         0.0000000000         1.2191133500
C        3.0664368730         0.0000000000        -0.2576024550
H       -0.1470253930         0.0000000000        -0.6964765550
H        3.3041538090        -0.8767117660        -0.8588008660
H        3.3041538090         0.8767117660        -0.8588008660
H        3.6587152270         0.0000000000         0.6509263670

3.004_OH-N__aceticacid--dimethylamine_1.wfx

