%nprocs=4
%mem=2GB
#p hf aug-cc-pvdz output=wfx scf=(conver=6) int=(grid=ultrafine)

title

0 1
N       -2.0144814160        -0.1776156400         0.5887069960
H       -2.6659063890        -0.6000225000         1.2368608950
C       -2.6615611100         0.1388544650        -0.6909953710
H       -1.6483682830         0.6672168010         1.0123768730
H       -3.5157145030         0.8137779610        -0.5978383230
H       -2.9985850460        -0.7818744960        -1.1635356300
H       -1.9270547720         0.6053021630        -1.3440455750

3.006_OH-N__aceticacid--methylamine_2.wfx

