%nprocs=4
%mem=2GB
#p hf aug-cc-pvdz output=wfx scf=(conver=6) int=(grid=ultrafine)

title

0 1
H        1.7378523290        -1.7610504030         0.0000000000
C        2.6234409950        -1.1270364150         0.0000000000
C        2.1780829940         0.2517599060         0.0000000000
H        3.2201866050        -1.3316851560        -0.8867750020
H        3.2201866050        -1.3316851560         0.8867750020
N        1.7787926940         1.3287790660         0.0000000000

3.001_OH-N__aceticacid--acetonitrile_2.wfx

