%nprocs=4
%mem=2GB
#p hf aug-cc-pvdz output=wfx scf=(conver=6) int=(grid=ultrafine)

title

0 1
  C   -1.638975366  -0.056022600   0.031518714
  O   -1.127948699  -1.122837952   0.284219743
  O   -0.934676385   1.041064882  -0.273451761
  H    0.025822213   0.821325391  -0.242476783
  C   -3.119969895   0.201850673   0.021436052
  H   -3.655230230  -0.713147090   0.249229494
  H   -3.362802565   0.968823372   0.755885812
  H   -3.422583327   0.581618092  -0.953387360
  H    1.801176648  -1.372072378  -1.357135207
  H    1.189784432  -1.696651414   0.247156632
  H    2.981003125  -1.452858723   0.009546026
  C    1.975995816  -1.173787510  -0.297735413
  N    1.732937593   0.258864978  -0.097525639
  O    2.661625617   0.890534611   0.318233167

3.009_OH-N__aceticacid--nitrosomethane_095.wfx

