%nprocs=4
%mem=2GB
#p hf aug-cc-pvdz output=wfx scf=(conver=6) int=(grid=ultrafine)

title

0 1
  C   -1.847940802   0.029706972  -0.103185412
  O   -1.300043862  -0.576899105  -0.992492110
  O   -1.207286385   0.464195393   0.992954030
  H   -0.257692874   0.218772560   0.920625834
  C   -3.307270073   0.390103956  -0.080573142
  H   -3.775712834  -0.019421015   0.813258545
  H   -3.795174590   0.004583216  -0.968758955
  H   -3.416672861   1.472943550  -0.035106854
  H    0.871266048  -1.775179982  -0.765495798
  H    2.513369184  -1.978056469  -0.076360812
  H    1.077536027  -2.299134082   0.912401077
  C    1.486914397  -1.674249255   0.126363537
  N    1.432942796  -0.283319467   0.625408851
  N    2.072265462   0.540230170  -0.026442339
  N    2.630034473   1.370008227  -0.544596554

3.007_OH-N__aceticacid--methylazide_095.wfx

