%nprocs=4
%mem=2GB
#p hf aug-cc-pvdz output=wfx scf=(conver=6) int=(grid=ultrafine)

title

0 1
  C   -1.638975366  -0.056022600   0.031518714
  O   -1.127948699  -1.122837952   0.284219743
  O   -0.934676385   1.041064882  -0.273451761
  H    0.025822213   0.821325391  -0.242476783
  C   -3.119969895   0.201850673   0.021436052
  H   -3.655230230  -0.713147090   0.249229494
  H   -3.362802565   0.968823372   0.755885812
  H   -3.422583327   0.581618092  -0.953387360
  H    1.711328470  -1.342469199  -1.364764214
  H    1.099936254  -1.667048235   0.239527625
  H    2.891154947  -1.423255544   0.001917019
  C    1.886147638  -1.144184331  -0.305364420
  N    1.643089415   0.288468157  -0.105154646
  O    2.571777439   0.920137790   0.310604160

3.009_OH-N__aceticacid--nitrosomethane_090.wfx

