%nprocs=4
%mem=2GB
#p hf aug-cc-pvdz output=wfx scf=(conver=6) int=(grid=ultrafine)

title

0 1
  O   -2.209904462  -0.054816560  -0.580258992
  H   -1.268469531   0.138886139  -0.486211999
  C   -2.913172988   0.611520510   0.453485531
  H   -3.962376405   0.338293244   0.361242537
  H   -2.833471641   1.699786965   0.370772775
  H   -2.566253773   0.312060799   1.447564622
  H    0.978648199  -2.066958273  -0.706844753
  H    0.801811977  -1.853279688   1.052989513
  H   -0.636041804  -1.999479905   0.022338340
  C    0.374883023  -1.612009398   0.078942524
  N    0.268355594  -0.153742087  -0.107997736
  N    1.322047304   0.473989554  -0.103924229
  N    2.228077940   1.145153560  -0.115348277

3.019_OH-N__methanol--methylazide_080.wfx

