%nprocs=4
%mem=2GB
#p hf aug-cc-pvdz output=wfx scf=(conver=6) int=(grid=ultrafine)

title

0 1
  O    2.271169342   0.653276194   0.000000000
  H    1.313480436   0.533481438   0.000000000
  C    2.876155121  -0.624338818   0.000000000
  H    3.954807364  -0.476204534   0.000000000
  H    2.611442796  -1.208150724  -0.888085808
  H    2.611442796  -1.208150724   0.888085808
  H   -3.918568839   0.823765868   0.000000000
  H   -3.792306454  -0.704778633  -0.885640940
  H   -3.792306454  -0.704778633   0.885640940
  C   -3.462871344  -0.164664327   0.000000000
  C   -2.015340537  -0.044219916   0.000000000
  N   -0.872691764   0.051856482   0.000000000

3.013_OH-N__methanol--acetonitrile_110.wfx

