%nprocs=4
%mem=2GB
#p hf aug-cc-pvdz output=wfx scf=(conver=6) int=(grid=ultrafine)

title

0 1
N        1.4000110940         0.5901261260         0.3320332600
C        1.9608921390        -0.6383961600        -0.2420845040
H        1.8006319330         1.4090791030        -0.1066542000
H        1.6054870330         0.6559722650         1.3202294760
H        3.0481537650        -0.7201362100        -0.1559583780
H        1.6937765950        -0.6915019360        -1.2957059720
H        1.5134450690        -1.4989244720         0.2519504500

3.018_OH-N__methanol--methylamine_2.wfx

