%nprocs=4
%mem=2GB
#p hf aug-cc-pvdz output=wfx scf=(conver=6) int=(grid=ultrafine)

title

0 1
  O    0.749094627  -0.654173646   0.000000000
  H   -0.181861619  -0.369615568   0.000000000
  C    1.570577565   0.493364232   0.000000000
  H    2.607484361   0.160609549   0.000000000
  H    1.415953385   1.117244940   0.888008831
  H    1.415953385   1.117244940  -0.888008831
  N   -3.933783767   0.642332138   0.000000000
  H   -4.449322140  -0.229016984   0.000000000
  H   -4.222774303   1.165765836  -0.816679180
  H   -4.222774303   1.165765836   0.816679180

3.014_OH-N__methanol--ammonia_200.wfx

