%nprocs=4
%mem=2GB
#p hf aug-cc-pvdz output=wfx scf=(conver=6) int=(grid=ultrafine)

title

0 1
O        2.2711693420         0.6532761940         0.0000000000
H        1.3134804360         0.5334814380         0.0000000000
C        2.8761551210        -0.6243388180         0.0000000000
H        2.6114427960        -1.2081507240        -0.8880858080
H        2.6114427960        -1.2081507240         0.8880858080
H        3.9548073640        -0.4762045340         0.0000000000

3.013_OH-N__methanol--acetonitrile_1.wfx

