%nprocs=4
%mem=2GB
#p hf aug-cc-pvdz output=wfx scf=(conver=6) int=(grid=ultrafine)

title

0 1
  O   -1.595339818   0.688093212  -0.217449474
  H   -0.701470430   0.441608071   0.094804663
  C   -2.487690514  -0.352566612   0.115895092
  H   -3.479099900  -0.070073065  -0.235371639
  H   -2.218418840  -1.301891789  -0.362427056
  H   -2.547933056  -0.520131412   1.197548045
  H    1.351252467   1.292246013  -1.157425855
  H    2.760034021   0.877010272  -0.168322552
  H    1.520488321   1.990620743   0.449428834
  H    1.099845149  -0.115340618   1.396090836
  H    0.548438305  -2.062722132   0.208373555
  H    0.749679414  -1.184822490  -1.305524592
  H    2.169709150  -1.568198368  -0.321291058
  C    1.684087359   1.090595041  -0.139664356
  N    0.895242932  -0.007323790   0.411891157
  C    1.113672964  -1.272412412  -0.282027718

3.016_OH-N__methanol--dimethylamine_090.wfx

