%nprocs=4
%mem=2GB
#p hf aug-cc-pvdz output=wfx scf=(conver=6) int=(grid=ultrafine)

title

0 1
  O   -1.978053535  -0.023446482   0.668943910
  H   -1.041058927   0.187252730   0.522641944
  C   -2.656380907   0.093829410  -0.565780324
  H   -3.692356972  -0.197906375  -0.403387047
  H   -2.234448733  -0.562984397  -1.334728767
  H   -2.647648037   1.120277903  -0.948211132
  H    0.990463008   2.243862770   0.983337473
  H    2.209869184   1.700630939  -0.215102249
  H    0.591376699   2.279782429  -0.726658311
  H    0.954089920  -2.355634193  -0.910626843
  H   -0.257481550  -1.837204931   0.307576084
  H    1.374802885  -2.397087759   0.791392224
  C    1.149891260   1.733607774   0.033555743
  N    0.576234528   0.396173726   0.140235043
  N    1.375834866  -0.514691990  -0.066237829
  C    0.799678389  -1.851470109   0.043458370

3.017_OH-N__methanol--dimethyldiazene_085.wfx

