%nprocs=4
%mem=2GB
#p hf aug-cc-pvdz output=wfx scf=(conver=6) int=(grid=ultrafine)

title

0 1
N       -2.0578226930         0.1363582850         0.0000000000
H       -2.5733610660        -0.7349908370         0.0000000000
H       -2.3468132290         0.6597919830        -0.8166791800
H       -2.3468132290         0.6597919830         0.8166791800

3.014_OH-N__methanol--ammonia_2.wfx

