%nprocs=4
%mem=2GB
#p hf aug-cc-pvdz output=wfx scf=(conver=6) int=(grid=ultrafine)

title

0 1
H        2.6335914560         1.2494643690         1.2678816200
C        1.6612229950         0.7439092530         1.2047990300
N        1.5553238330        -0.0775645240         0.0000000000
H        1.5402495400         0.1154263570         2.0855508030
H        0.8690919380         1.4883879320         1.1964781170
C        2.5300585680        -1.1629798870         0.0000000000
C        1.6612229950         0.7439092530        -1.2047990300
H        2.3879717820        -1.7831654650        -0.8832789150
H        2.3879717820        -1.7831654650         0.8832789150
H        3.5626752570        -0.7890980280         0.0000000000
H        1.5402495400         0.1154263570        -2.0855508030
H        2.6335914560         1.2494643690        -1.2678816200
H        0.8690919380         1.4883879320        -1.1964781170

3.012_OH-N__aceticacid--trimethylamine_2.wfx

