%nprocs=4
%mem=2GB
#p hf aug-cc-pvdz output=wfx scf=(conver=6) int=(grid=ultrafine)

title

0 1
C       -2.3571869640         0.0087989260         0.0000000000
C       -3.7037103070        -0.6692515900         0.0000000000
O       -1.3530656020        -0.8637300580         0.0000000000
O       -2.2078207590         1.2112044660         0.0000000000
H       -3.7941615620        -1.3091842860        -0.8769268120
H       -3.7941615620        -1.3091842860         0.8769268120
H       -4.4932723070         0.0743438690         0.0000000000
H       -0.4617624460        -0.3804808510         0.0000000000

3.010_OH-N__aceticacid--Nmethyl2propanimine_1.wfx

