%nprocs=4
%mem=2GB
#p hf aug-cc-pvdz output=wfx scf=(conver=6) int=(grid=ultrafine)

title

0 1
O       -1.3815808170         0.5402665850        -0.4006406260
C       -1.9812360710        -0.5397694850         0.2805882080
H       -0.4536598170         0.6136643900        -0.1056590310
H       -3.0165238990        -0.6110186420        -0.0497777070
H       -1.4909337100        -1.4957501110         0.0605140360
H       -1.9827374320        -0.3987400890         1.3676951040

3.018_OH-N__methanol--methylamine_1.wfx

