%nprocs=4
%mem=2GB
#p hf aug-cc-pvdz output=wfx scf=(conver=6) int=(grid=ultrafine)

title

0 1
  O    2.918572453   0.000000000  -0.605637020
  H    1.949094148   0.000000000  -0.504913136
  C    3.497253484   0.000000000   0.681677575
  H    4.579607695   0.000000000   0.560896664
  H    3.221051514   0.887249147   1.263031668
  H    3.221051514  -0.887249147   1.263031668
  H   -2.105020557   2.146999384   0.088445811
  H    0.355709069   2.052345875  -0.251558387
  C   -2.301212506   0.000000000   0.116582349
  C   -1.601133441   1.194345616   0.020019857
  C   -0.226894667   1.143788024  -0.169081183
  N    0.451300620   0.000000000  -0.261713890
  C   -0.226894667  -1.143788024  -0.169081183
  C   -1.601133441  -1.194345616   0.020019857
  H    0.355709069  -2.052345875  -0.251558387
  H   -2.105020557  -2.146999384   0.088445811
  H   -3.371926890   0.000000000   0.263502002

3.022_OH-N__methanol--pyridine_080.wfx

