%nprocs=4
%mem=2GB
#p hf aug-cc-pvdz output=wfx scf=(conver=6) int=(grid=ultrafine)

title

0 1
O       -1.8705642930        -0.7569980800         0.0000000000
H       -0.9243807280        -0.5043801890         0.0000000000
C       -2.6425441090         0.4238454110         0.0000000000
H       -3.6936261550         0.1388817400         0.0000000000
H       -2.4606483850         1.0408687450        -0.8879983230
H       -2.4606483850         1.0408687450         0.8879983230

3.023_OH-N__methanol--trimethylamine_1.wfx

