%nprocs=4
%mem=2GB
#p hf aug-cc-pvdz output=wfx scf=(conver=6) int=(grid=ultrafine)

title

0 1
  O   -1.870564293  -0.756998080   0.000000000
  H   -0.924380728  -0.504380189   0.000000000
  C   -2.642544109   0.423845411  -0.000000000
  H   -3.693626155   0.138881740   0.000000000
  H   -2.460648385   1.040868745  -0.887998323
  H   -2.460648385   1.040868745   0.887998323
  H    3.074093443   1.344002556   1.290437192
  H    1.758747187   0.452401819   2.082411001
  H    1.404796854   1.938809363   1.198625865
  H    1.404796854   1.938809363  -1.198625865
  H    3.074093443   1.344002556  -1.290437192
  H    1.758747187   0.452401819  -2.082411001
  H    3.606050586  -0.813220857   0.000000000
  H    2.261881417  -1.567609727  -0.882114329
  C    2.020111391   1.040627456   1.204615285
  N    1.765725914   0.262690453  -0.000000000
  C    2.020111391   1.040627456  -1.204615285
  C    2.519372989  -0.984274248   0.000000000
  H    2.261881417  -1.567609727   0.882114329

3.023_OH-N__methanol--trimethylamine_150.wfx

