%nprocs=4
%mem=2GB
#p hf aug-cc-pvdz output=wfx scf=(conver=6) int=(grid=ultrafine)

title

0 1
  O   -1.870564293  -0.756998080   0.000000000
  H   -0.924380728  -0.504380189   0.000000000
  C   -2.642544109   0.423845411  -0.000000000
  H   -3.693626155   0.138881740   0.000000000
  H   -2.460648385   1.040868745  -0.887998323
  H   -2.460648385   1.040868745   0.887998323
  H    2.625742336   1.216157449   1.290437192
  H    1.310396080   0.324556712   2.082411001
  H    0.956445747   1.810964256   1.198625865
  H    0.956445747   1.810964256  -1.198625865
  H    2.625742336   1.216157449  -1.290437192
  H    1.310396080   0.324556712  -2.082411001
  H    3.157699479  -0.941065964   0.000000000
  H    1.813530310  -1.695454834  -0.882114329
  C    1.571760284   0.912782349   1.204615285
  N    1.317374807   0.134845346  -0.000000000
  C    1.571760284   0.912782349  -1.204615285
  C    2.071021882  -1.112119355   0.000000000
  H    1.813530310  -1.695454834   0.882114329

3.023_OH-N__methanol--trimethylamine_125.wfx

