%nprocs=4
%mem=2GB
#p hf aug-cc-pvdz output=wfx scf=(conver=6) int=(grid=ultrafine)

title

0 1
  O   -1.870564293  -0.756998080   0.000000000
  H   -0.924380728  -0.504380189   0.000000000
  C   -2.642544109   0.423845411  -0.000000000
  H   -3.693626155   0.138881740   0.000000000
  H   -2.460648385   1.040868745  -0.887998323
  H   -2.460648385   1.040868745   0.887998323
  H    1.818710343   0.986036256   1.290437192
  H    0.503364087   0.094435519   2.082411001
  H    0.149413754   1.580843063   1.198625865
  H    0.149413754   1.580843063  -1.198625865
  H    1.818710343   0.986036256  -1.290437192
  H    0.503364087   0.094435519  -2.082411001
  H    2.350667486  -1.171187157   0.000000000
  H    1.006498317  -1.925576027  -0.882114329
  C    0.764728291   0.682661156   1.204615285
  N    0.510342814  -0.095275847   0.000000000
  C    0.764728291   0.682661156  -1.204615285
  C    1.263989889  -1.342240548   0.000000000
  H    1.006498317  -1.925576027   0.882114329

3.023_OH-N__methanol--trimethylamine_080.wfx

