%nprocs=4
%mem=2GB
#p hf aug-cc-pvdz output=wfx scf=(conver=6) int=(grid=ultrafine)

title

0 1
O       -2.3484867710        -0.0566247730         0.6131565220
C       -2.9502041400        -0.0626023510        -0.6624386030
H       -1.4126904240         0.2101391750         0.5054128390
H       -3.9766785000        -0.4087625480        -0.5488508770
H       -2.9769822130         0.9351601170        -1.1155951380
H       -2.4400867050        -0.7377653410        -1.3600881370

3.021_OH-N__methanol--Nmethyl2propanimine_1.wfx

