%nprocs=4
%mem=2GB
#p hf aug-cc-pvdz output=wfx scf=(conver=6) int=(grid=ultrafine)

title

0 1
  O   -1.870564293  -0.756998080   0.000000000
  H   -0.924380728  -0.504380189   0.000000000
  C   -2.642544109   0.423845411  -0.000000000
  H   -3.693626155   0.138881740   0.000000000
  H   -2.460648385   1.040868745  -0.887998323
  H   -2.460648385   1.040868745   0.887998323
  H    2.087721008   1.062743321   1.290437192
  H    0.772374752   0.171142584   2.082411001
  H    0.418424419   1.657550128   1.198625865
  H    0.418424419   1.657550128  -1.198625865
  H    2.087721008   1.062743321  -1.290437192
  H    0.772374752   0.171142584  -2.082411001
  H    2.619678151  -1.094480092   0.000000000
  H    1.275508982  -1.848868962  -0.882114329
  C    1.033738956   0.759368221   1.204615285
  N    0.779353479  -0.018568782   0.000000000
  C    1.033738956   0.759368221  -1.204615285
  C    1.533000554  -1.265533483   0.000000000
  H    1.275508982  -1.848868962   0.882114329

3.023_OH-N__methanol--trimethylamine_095.wfx

