%nprocs=4
%mem=2GB
#p hf aug-cc-pvdz output=wfx scf=(conver=6) int=(grid=ultrafine)

title

0 1
  O    2.918572453   0.000000000  -0.605637020
  H    1.949094148   0.000000000  -0.504913136
  C    3.497253484   0.000000000   0.681677575
  H    4.579607695   0.000000000   0.560896664
  H    3.221051514   0.887249147   1.263031668
  H    3.221051514  -0.887249147   1.263031668
  H   -3.415589894   2.146999384   0.301245152
  H   -0.954860268   2.052345875  -0.038759046
  C   -3.611781843   0.000000000   0.329381690
  C   -2.911702778   1.194345616   0.232819198
  C   -1.537464004   1.143788024   0.043718158
  N   -0.859268717   0.000000000  -0.048914549
  C   -1.537464004  -1.143788024   0.043718158
  C   -2.911702778  -1.194345616   0.232819198
  H   -0.954860268  -2.052345875  -0.038759046
  H   -3.415589894  -2.146999384   0.301245152
  H   -4.682496227   0.000000000   0.476301343

3.022_OH-N__methanol--pyridine_150.wfx

