%nprocs=4
%mem=2GB
#p hf aug-cc-pvdz output=wfx scf=(conver=6) int=(grid=ultrafine)

title

0 1
H       -1.2710069190         2.3632821410         0.0000000230
C       -1.4477634270         1.2974261250         0.0000000060
C       -2.7346359820         0.7824147670         0.0000000470
C       -0.3484449840         0.4369495500        -0.0000000530
C       -2.9519504370        -0.5920754730         0.0000000680
H       -3.5763270210         1.4612735310         0.0000000840
C       -0.5632127340        -0.9436906240        -0.0000000870
O        0.8868116400         0.9843385070        -0.0000000440
H       -3.9568042100        -0.9881313990         0.0000001750
C       -1.8577236870        -1.4474190740        -0.0000000400
H        0.2833639210        -1.6160539050        -0.0000001530
H        1.5889626590         0.2902773360        -0.0000000050
H       -2.0086933650        -2.5182938460        -0.0000000710

3.029_OH-N__phenol--methylamine_1.wfx

