%nprocs=4
%mem=2GB
#p hf aug-cc-pvdz output=wfx scf=(conver=6) int=(grid=ultrafine)

title

0 1
H        2.8142456900         0.3428452030        -1.1870569920
C        2.6624939210        -0.2297470400        -0.2708765990
C        1.1905121630        -0.4030081210         0.0122539580
H        3.1658333480        -1.1870370890        -0.3743305090
H        3.1442703490         0.3285188620         0.5335213500
C        0.6804533780        -1.8087992380         0.1290777720
N        0.3785869230         0.5639111410         0.1549703990
H       -0.3821603770        -1.8222468540         0.3526322240
H        0.8663247890        -2.3531079760        -0.7995350480
H        1.2219072890        -2.3394438720         0.9151853670
C        0.8558627430         1.9325103490         0.0477342190
H        0.0240511350         2.6120151480         0.2126953490
H        1.2757544930         2.1400315330        -0.9403643410
H        1.6288623780         2.1539309620         0.7885235950

3.021_OH-N__methanol--Nmethyl2propanimine_2.wfx

