%nprocs=4
%mem=2GB
#p hf aug-cc-pvdz output=wfx scf=(conver=6) int=(grid=ultrafine)

title

0 1
N       -3.6663468570        -0.5133771100         0.0000000000
H       -3.7621990850        -1.1037814310        -0.8169496610
H       -3.7621990850        -1.1037814310         0.8169496610
H       -4.4460917170         0.1327931650         0.0000000000

3.025_OH-N__phenol--ammonia_2.wfx

