%nprocs=4
%mem=2GB
#p hf aug-cc-pvdz output=wfx scf=(conver=6) int=(grid=ultrafine)

title

0 1
  O    2.079875756  -0.208919275   0.000000000
  H    2.999613891   0.063843842   0.000000000
  H    1.566421342   0.606257085   0.000000000
  H   -1.799234243  -1.463249001   0.886042719
  H   -1.799234243  -1.463249001  -0.886042719
  H   -0.273090413  -1.662898269   0.000000000
  C   -1.241675546  -1.165823446   0.000000000
  C   -1.026902769   0.270396840   0.000000000
  N   -0.812459481   1.399163155   0.000000000

3.035_OH-N__water--acetonitrile_105.wfx

