%nprocs=4
%mem=2GB
#p hf aug-cc-pvdz output=wfx scf=(conver=6) int=(grid=ultrafine)

title

0 1
H       -1.8042129460        -1.1320646830        -1.9709094410
C       -1.7131507180        -0.6080739000        -1.0306480010
C       -0.7891627170        -1.0684773300        -0.0934037770
C       -2.4872591230         0.5084775260        -0.7499489210
C       -0.6616804210        -0.4095398920         1.1307613600
O       -0.0466344430        -2.1570346330        -0.4172978600
H       -3.1995257730         0.8579161760        -1.4843191810
C       -2.3512383550         1.1808591200         0.4609468770
C       -1.4385792530         0.7108428990         1.3979982470
H        0.0428020860        -0.7768722680         1.8625902500
H        0.7844726060        -2.1504410820         0.0814551540
H       -2.9551315250         2.0504863350         0.6743363460
H       -1.3307343350         1.2142314620         2.3486360050

3.031_OH-N__phenol--methylcyanate_1.wfx

