%nprocs=4
%mem=2GB
#p hf aug-cc-pvdz output=wfx scf=(conver=6) int=(grid=ultrafine)

title

0 1
  O   -1.470668174   0.057604709   0.000000000
  H   -0.502275126  -0.054060965   0.000000000
  H   -1.831636709  -0.830709539   0.000000000
  N    1.259353752  -0.016759414   0.000000000
  H    1.470055660   0.973624649   0.000000000
  H    1.700289738  -0.420184147  -0.816838066
  H    1.700289738  -0.420184147   0.816838066

3.036_OH-N__water--ammonia_090.wfx

