%nprocs=4
%mem=2GB
#p hf aug-cc-pvdz output=wfx scf=(conver=6) int=(grid=ultrafine)

title

0 1
  O    2.536736371   0.182918899  -0.061451462
  H    1.578854572   0.331992874   0.022473871
  H    2.921944478   0.519691564   0.749931716
  H   -0.791998711   2.272293786  -0.858506866
  H   -2.263099821   1.596877424  -0.085543673
  H   -0.918682260   2.266926923   0.893631412
  H   -0.966911031  -2.395111528   0.859211631
  H    0.514731405  -1.739936288   0.086595721
  H   -0.844994776  -2.378659814  -0.890197234
  C   -1.182930713   1.714057994  -0.007945777
  N   -0.499575407   0.425139907   0.035310805
  N   -1.251534723  -0.545910171  -0.023032753
  C   -0.568111049  -1.835217026   0.013186537

3.039_OH-N__water--dimethyldiazene_105.wfx

