%nprocs=4
%mem=2GB
#p hf aug-cc-pvdz output=wfx scf=(conver=6) int=(grid=ultrafine)

title

0 1
  O   -3.334474181  -0.000000000   1.106021140
  H   -2.729465437  -0.000000000   0.346198096
  H   -2.765185049  -0.000000000   1.878242025
  H    1.193079328   2.140415839  -2.121203158
  H    4.505482315   0.000000000  -0.447488388
  H    3.389342607   2.138797359  -1.013407070
  H    1.193079328  -2.140415839  -2.121203158
  H   -0.451339851   0.829771094  -3.310295444
  H    3.389342607  -2.138797359  -1.013407070
  H   -0.451339851  -0.829771094  -3.310295444
  C    3.542539661   0.000000000  -0.936213476
  C    2.914763509   1.198178699  -1.254864725
  C    1.677985186   1.202927930  -1.883157969
  C    1.049185058   0.000000000  -2.206342067
  C    1.677985186  -1.202927930  -1.883157969
  C    2.914763509  -1.198178699  -1.254864725
  N   -0.234594171   0.000000000  -2.780066768

3.037_OH-N__water--aniline_200.wfx

