%nprocs=4
%mem=2GB
#p hf aug-cc-pvdz output=wfx scf=(conver=6) int=(grid=ultrafine)

title

0 1
O        2.5367363710         0.1829188990        -0.0614514620
H        1.5788545720         0.3319928740         0.0224738710
H        2.9219444780         0.5196915640         0.7499317160

3.039_OH-N__water--dimethyldiazene_1.wfx

