%nprocs=4
%mem=2GB
#p hf aug-cc-pvdz output=wfx scf=(conver=6) int=(grid=ultrafine)

title

0 1
  H   -1.804212946  -1.132064683  -1.970909441
  H   -2.955131525   2.050486335   0.674336346
  H   -3.199525773   0.857916176  -1.484319181
  H    0.042802086  -0.776872268   1.862590250
  H    0.784472606  -2.150441082   0.081455154
  H   -1.330734335   1.214231462   2.348636005
  C   -2.351238355   1.180859120   0.460946877
  C   -2.487259123   0.508477526  -0.749948921
  C   -1.713150718  -0.608073900  -1.030648001
  C   -0.789162717  -1.068477330  -0.093403777
  C   -0.661680421  -0.409539892   1.130761360
  C   -1.438579253   0.710842899   1.397998247
  O   -0.046634443  -2.157034633  -0.417297860
  H    3.174311112   2.150551974  -1.547164407
  H    3.284853649   3.779378597  -0.816362932
  H    2.120821017   2.582940121  -0.166062628
  C    3.088355705   2.730594681  -0.633279211
  O    4.142561136   2.314042700   0.300513735
  C    4.196647194   1.067401661   0.566645117
  N    4.279423428  -0.054929748   0.828524048

3.031_OH-N__phenol--methylcyanate_200.wfx

