%nprocs=4
%mem=2GB
#p hf aug-cc-pvdz output=wfx scf=(conver=6) int=(grid=ultrafine)

title

0 1
  O    2.079875756  -0.208919275   0.000000000
  H    2.999613891   0.063843842   0.000000000
  H    1.566421342   0.606257085   0.000000000
  H   -1.459394126  -1.576521297   0.886042719
  H   -1.459394126  -1.576521297  -0.886042719
  H    0.066749704  -1.776170565   0.000000000
  C   -0.901835429  -1.279095742   0.000000000
  C   -0.687062652   0.157124544   0.000000000
  N   -0.472619364   1.285890859   0.000000000

3.035_OH-N__water--acetonitrile_090.wfx

