%nprocs=4
%mem=2GB
#p hf aug-cc-pvdz output=wfx scf=(conver=6) int=(grid=ultrafine)

title

0 1
  O    2.241713569   0.035392689  -0.098710035
  H    1.314614159   0.085381154   0.214834338
  H    2.720020893   0.702117444   0.397201570
  H   -1.171037771   1.236731690  -1.142367068
  H   -2.698036172   1.076392172  -0.261167948
  H   -1.372884869   2.052114460   0.405662180
  H   -1.320261873  -0.028919580   1.491889252
  H   -0.947875651  -2.101725496   0.455620972
  H   -0.917998361  -1.302572566  -1.111558602
  H   -2.446119670  -1.429569260  -0.225173568
  C   -1.608495678   1.145381140  -0.148591802
  N   -1.025074670  -0.010224014   0.525020376
  C   -1.364737133  -1.276710390  -0.118202108

3.038_OH-N__water--dimethylamine_125.wfx

