%nprocs=4
%mem=2GB
#p hf aug-cc-pvdz output=wfx scf=(conver=6) int=(grid=ultrafine)

title

0 1
O        2.0798757560        -0.2089192750         0.0000000000
H        1.5664213420         0.6062570850         0.0000000000
H        2.9996138910         0.0638438420         0.0000000000

3.035_OH-N__water--acetonitrile_1.wfx

