%nprocs=4
%mem=2GB
#p hf aug-cc-pvdz output=wfx scf=(conver=6) int=(grid=ultrafine)

title

0 1
  O    2.241713569   0.035392689  -0.098710035
  H    1.314614159   0.085381154   0.214834338
  H    2.720020893   0.702117444   0.397201570
  H   -0.328749792   1.271149551  -1.254034042
  H   -1.855748193   1.110810032  -0.372834921
  H   -0.530596890   2.086532321   0.293995206
  H   -0.477973894   0.005498280   1.380222278
  H   -0.105587672  -2.067307635   0.343953998
  H   -0.075710382  -1.268154705  -1.223225576
  H   -1.603831691  -1.395151400  -0.336840542
  C   -0.766207699   1.179799000  -0.260258776
  N   -0.182786691   0.024193847   0.413353402
  C   -0.522449154  -1.242292529  -0.229869082

3.038_OH-N__water--dimethylamine_080.wfx

