%nprocs=4
%mem=2GB
#p hf aug-cc-pvdz output=wfx scf=(conver=6) int=(grid=ultrafine)

title

0 1
H       -2.4436344850        -2.2558981450        -0.4452368210
C       -2.3749658780        -1.2056865930        -0.2018083420
C       -3.4962067650        -0.3903130310        -0.2059701030
C       -1.1289570350        -0.6707266180         0.1208818500
H       -4.4582480140        -0.8147671410        -0.4571775790
C       -3.3939283760         0.9617376280         0.1065063280
C       -1.0196202890         0.6822699190         0.4422792950
O       -0.0596342310        -1.5093784270         0.1096496520
H       -4.2707897340         1.5922315350         0.1009107730
C       -2.1509076090         1.4891313740         0.4304678800
H       -0.0560809720         1.0921276030         0.7115302850
H        0.7638928940        -1.0106820220         0.2333927580
H       -2.0562279880         2.5361664200         0.6830372720

3.030_OH-N__phenol--methylazide_1.wfx

