%nprocs=4
%mem=2GB
#p hf aug-cc-pvdz output=wfx scf=(conver=6) int=(grid=ultrafine)

title

0 1
  O   -3.334474181  -0.000000000   1.106021140
  H   -2.729465437  -0.000000000   0.346198096
  H   -2.765185049  -0.000000000   1.878242025
  H    0.569361512   2.140415839  -1.339636942
  H    3.881764498   0.000000000   0.334077828
  H    2.765624790   2.138797359  -0.231840854
  H    0.569361512  -2.140415839  -1.339636942
  H   -1.075057668   0.829771094  -2.528729228
  H    2.765624790  -2.138797359  -0.231840854
  H   -1.075057668  -0.829771094  -2.528729228
  C    2.918821844   0.000000000  -0.154647260
  C    2.291045692   1.198178699  -0.473298509
  C    1.054267370   1.202927930  -1.101591753
  C    0.425467242   0.000000000  -1.424775851
  C    1.054267370  -1.202927930  -1.101591753
  C    2.291045692  -1.198178699  -0.473298509
  N   -0.858311988   0.000000000  -1.998500552

3.037_OH-N__water--aniline_150.wfx

