%nprocs=4
%mem=2GB
#p hf aug-cc-pvdz output=wfx scf=(conver=6) int=(grid=ultrafine)

title

0 1
  O    2.536736371   0.182918899  -0.061451462
  H    1.578854572   0.331992874   0.022473871
  H    2.921944478   0.519691564   0.749931716
  H   -0.594052999   2.263422640  -0.859729432
  H   -2.065154109   1.588006278  -0.086766239
  H   -0.720736548   2.258055777   0.892408846
  H   -0.768965319  -2.403982674   0.857989065
  H    0.712677117  -1.748807434   0.085373155
  H   -0.647049064  -2.387530960  -0.891419800
  C   -0.984985001   1.705186848  -0.009168343
  N   -0.301629695   0.416268761   0.034088239
  N   -1.053589011  -0.554781317  -0.024255319
  C   -0.370165337  -1.844088172   0.011963971

3.039_OH-N__water--dimethyldiazene_095.wfx

