%nprocs=4
%mem=2GB
#p hf aug-cc-pvdz output=wfx scf=(conver=6) int=(grid=ultrafine)

title

0 1
H        2.5522728370         1.7131905230        -1.5333173670
C        2.1966976210         0.6827954150        -1.5219383420
N        2.3299891020         0.0884567730        -0.1786477420
H        1.1391772620         0.6680367340        -1.7605349510
H        2.7402114500         0.0986737550        -2.2646771650
N        3.4644076940         0.0592482700         0.2913750120
N        4.4598226070        -0.0124658080         0.8139102290

3.030_OH-N__phenol--methylazide_2.wfx

