%nprocs=4
%mem=2GB
#p hf aug-cc-pvdz output=wfx scf=(conver=6) int=(grid=ultrafine)

title

0 1
  O    2.079875756  -0.208919275   0.000000000
  H    2.999613891   0.063843842   0.000000000
  H    1.566421342   0.606257085   0.000000000
  H   -1.572674165  -1.538763865   0.886042719
  H   -1.572674165  -1.538763865  -0.886042719
  H   -0.046530335  -1.738413133   0.000000000
  C   -1.015115468  -1.241338310   0.000000000
  C   -0.800342691   0.194881976   0.000000000
  N   -0.585899403   1.323648291   0.000000000

3.035_OH-N__water--acetonitrile_095.wfx

