%nprocs=4
%mem=2GB
#p hf aug-cc-pvdz output=wfx scf=(conver=6) int=(grid=ultrafine)

title

0 1
O        2.2417135690         0.0353926890        -0.0987100350
H        1.3146141590         0.0853811540         0.2148343380
H        2.7200208930         0.7021174440         0.3972015700

3.038_OH-N__water--dimethylamine_1.wfx

