%nprocs=4
%mem=2GB
#p hf aug-cc-pvdz output=wfx scf=(conver=6) int=(grid=ultrafine)

title

0 1
  O    2.079875756  -0.208919275   0.000000000
  H    2.999613891   0.063843842   0.000000000
  H    1.566421342   0.606257085   0.000000000
  H   -1.685954204  -1.501006433   0.886042719
  H   -1.685954204  -1.501006433  -0.886042719
  H   -0.159810374  -1.700655701   0.000000000
  C   -1.128395507  -1.203580878   0.000000000
  C   -0.913622730   0.232639408   0.000000000
  N   -0.699179442   1.361405723   0.000000000

3.035_OH-N__water--acetonitrile_100.wfx

