%nprocs=4
%mem=2GB
#p hf aug-cc-pvdz output=wfx scf=(conver=6) int=(grid=ultrafine)

title

0 1
  O    2.079875756  -0.208919275   0.000000000
  H    2.999613891   0.063843842   0.000000000
  H    1.566421342   0.606257085   0.000000000
  H   -2.818754596  -1.123432114   0.886042719
  H   -2.818754596  -1.123432114  -0.886042719
  H   -1.292610766  -1.323081382   0.000000000
  C   -2.261195899  -0.826006559   0.000000000
  C   -2.046423122   0.610213727   0.000000000
  N   -1.831979834   1.738980042   0.000000000

3.035_OH-N__water--acetonitrile_150.wfx

