%nprocs=4
%mem=2GB
#p hf aug-cc-pvdz output=wfx scf=(conver=6) int=(grid=ultrafine)

title

0 1
H        3.7125637470        -1.3221844260        -1.2849932500
C        2.7035028850        -0.8945124780        -1.2060593740
H        1.9839945620        -1.7112549910        -1.2050639900
H        2.5189710720        -0.2780655220        -2.0837317750
N        2.5413712130        -0.0906436030         0.0000000000
C        2.7035028850        -0.8945124780         1.2060593740
C        3.4468746030         1.0547100730         0.0000000000
H        2.5189710720        -0.2780655220         2.0837317750
H        1.9839945620        -1.7112549910         1.2050639900
H        3.7125637470        -1.3221844260         1.2849932500
H        3.2632505830         1.6650171750        -0.8820222980
H        3.2632505830         1.6650171750         0.8820222980
H        4.5013704780         0.7463852710         0.0000000000

3.034_OH-N__phenol--trimethylamine_2.wfx

