%nprocs=4
%mem=2GB
#p hf aug-cc-pvdz output=wfx scf=(conver=6) int=(grid=ultrafine)

title

0 1
H       -0.7031000050         1.2558527240        -1.2044042760
C       -1.1405579120         1.1645021730        -0.2106290100
N       -0.5571369040         0.0088970200         0.4629831680
H       -2.2300984060         1.0955132050        -0.3232051550
H       -0.9049471030         2.0712354940         0.3436249720
C       -0.8967993670        -1.2575893560        -0.1802393160
H       -0.8523241070        -0.0097985470         1.4298520440
H       -0.4500605950        -1.2834515320        -1.1735958100
H       -1.9781819040        -1.4104482270        -0.2872107760
H       -0.4799378850        -2.0826044620         0.3935837640

3.038_OH-N__water--dimethylamine_2.wfx

