%nprocs=4
%mem=2GB
#p hf aug-cc-pvdz output=wfx scf=(conver=6) int=(grid=ultrafine)

title

0 1
  O    2.241713569   0.035392689  -0.098710035
  H    1.314614159   0.085381154   0.214834338
  H    2.720020893   0.702117444   0.397201570
  H   -0.890275111   1.248204311  -1.179589393
  H   -2.417273512   1.087864792  -0.298390272
  H   -1.092122209   2.063587081   0.368439855
  H   -1.039499213  -0.017446960   1.454666927
  H   -0.667112991  -2.090252875   0.418398647
  H   -0.637235701  -1.291099945  -1.148780927
  H   -2.165357010  -1.418096640  -0.262395893
  C   -1.327733018   1.156853760  -0.185814127
  N   -0.744312010   0.001248607   0.487798051
  C   -1.083974473  -1.265237769  -0.155424433

3.038_OH-N__water--dimethylamine_110.wfx

