%nprocs=4
%mem=2GB
#p hf aug-cc-pvdz output=wfx scf=(conver=6) int=(grid=ultrafine)

title

0 1
  O    2.079875756  -0.208919275   0.000000000
  H    2.999613891   0.063843842   0.000000000
  H    1.566421342   0.606257085   0.000000000
  H   -1.232834047  -1.652036161   0.886042719
  H   -1.232834047  -1.652036161  -0.886042719
  H    0.293309783  -1.851685429   0.000000000
  C   -0.675275350  -1.354610606   0.000000000
  C   -0.460502573   0.081609680   0.000000000
  N   -0.246059285   1.210375995   0.000000000

3.035_OH-N__water--acetonitrile_080.wfx

