%nprocs=4
%mem=2GB
#p hf aug-cc-pvdz output=wfx scf=(conver=6) int=(grid=ultrafine)

title

0 1
O       -2.4568562400         0.0000000000         0.0678392510
H       -2.7923922850         0.0000000000         0.9660179570
H       -1.4791855640         0.0000000000         0.1483105030

3.045_OH-N__water--trimethylamine_1.wfx

