%nprocs=4
%mem=2GB
#p hf aug-cc-pvdz output=wfx scf=(conver=6) int=(grid=ultrafine)

title

0 1
  O   -2.164066826   0.673628527  -0.058441427
  H   -1.914751889  -0.255799065   0.026437608
  H   -3.043517756   0.674244371  -0.441855628
  H    2.829844807  -0.090446796   1.490285835
  H    3.430814792   0.612024458  -0.039678214
  H    1.686473786   0.217161531   0.146284659
  C    2.704304433  -0.051985193   0.411688403
  O    3.011097651  -1.375469847  -0.145228412
  C    2.167320140  -2.294207526   0.129692218
  N    1.408959737  -3.136518687   0.357379458

3.042_OH-N__water--methylcyanate_200.wfx

