%nprocs=4
%mem=2GB
#p hf aug-cc-pvdz output=wfx scf=(conver=6) int=(grid=ultrafine)

title

0 1
  O   -1.952573200   0.183687112   0.000000000
  H   -1.074646913  -0.247298404   0.000000000
  H   -2.591802599  -0.530867844   0.000000000
  N    0.874992059  -0.732273823   0.000000000
  H    1.152329393  -1.266635195   0.812943926
  H    1.152329393  -1.266635195  -0.812943926
  C    1.516702520   0.588940559   0.000000000
  H    1.186999005   1.142855776  -0.876570680
  H    2.609930723   0.556512033   0.000000000
  H    1.186999005   1.142855776   0.876570680

3.040_OH-N__water--methylamine_105.wfx

