%nprocs=4
%mem=2GB
#p hf aug-cc-pvdz output=wfx scf=(conver=6) int=(grid=ultrafine)

title

0 1
  O   -2.456856240  -0.000000000   0.067839251
  H   -1.479185564  -0.000000000   0.148310503
  H   -2.792392285  -0.000000000   0.966017957
  H    3.534969416   0.000000000  -1.821637746
  H    2.001026723   0.881611693  -1.984159524
  H    2.001026723  -0.881611693  -1.984159524
  H    2.339457147  -2.082230858   0.068438683
  H    3.899622474  -1.289308321   0.367362557
  H    2.603113072  -1.200087780   1.574884288
  H    3.899622474   1.289308321   0.367362557
  H    2.603113072   1.200087780   1.574884288
  C    2.468925896   0.000000000  -1.550323318
  N    2.268979966   0.000000000  -0.106453173
  C    2.811455928  -1.204433680   0.506049452
  C    2.811455928   1.204433680   0.506049452
  H    2.339457147   2.082230858   0.068438683

3.045_OH-N__water--trimethylamine_200.wfx

