%nprocs=4
%mem=2GB
#p hf aug-cc-pvdz output=wfx scf=(conver=6) int=(grid=ultrafine)

title

0 1
H       -2.5687372780        -0.4459327460         0.7972952110
C       -2.2366951310         0.1572841830        -0.0489446530
H       -2.5009624000        -0.3944386160        -0.9526531420
C       -0.7468335300         0.3902917100         0.0126475460
H       -2.7887246070         1.0930790020        -0.0440297810
N        0.1147673480        -0.5433117720         0.0420057880
C       -0.2821045400         1.8161736200         0.0344949830
C       -0.3210369840        -1.9296754650         0.0122132410
H       -0.6465380480         2.3412350030        -0.8511918110
H       -0.7028353760         2.3343616250         0.8992037500
H        0.8016407350         1.8743097260         0.0664910940
H       -0.9004388920        -2.1560665860        -0.8869050800
H       -0.9422315250        -2.1793293250         0.8768991810
H        0.5522201300        -2.5764352170         0.0230480960

3.043_OH-N__water--Nmethyl2propanimine_2.wfx

