%nprocs=4
%mem=2GB
#p hf aug-cc-pvdz output=wfx scf=(conver=6) int=(grid=ultrafine)

title

0 1
  O   -1.952573200   0.183687112   0.000000000
  H   -1.074646913  -0.247298404   0.000000000
  H   -2.591802599  -0.530867844   0.000000000
  N    0.410792304  -0.616803485   0.000000000
  H    0.688129638  -1.151164857   0.812943926
  H    0.688129638  -1.151164857  -0.812943926
  C    1.052502765   0.704410897   0.000000000
  H    0.722799250   1.258326114  -0.876570680
  H    2.145730968   0.671982371   0.000000000
  H    0.722799250   1.258326114   0.876570680

3.040_OH-N__water--methylamine_080.wfx

