%nprocs=4
%mem=2GB
#p hf aug-cc-pvdz output=wfx scf=(conver=6) int=(grid=ultrafine)

title

0 1
  O   -2.734992815  -0.615436303   0.076022684
  H   -1.773433311  -0.649782338  -0.023192102
  H   -3.082764985  -1.193624201  -0.605949093
  H    0.734121429   2.120028284   0.983077434
  H    0.916579221   2.329375656  -0.776867023
  H   -0.677544755   1.977476892  -0.079520188
  C    0.385921445   1.785636967   0.005404999
  N    0.557378363   0.329525358  -0.151227788
  N    1.701999125  -0.097186291  -0.043434890
  N    2.712064970  -0.592535388   0.035039292

3.041_OH-N__water--methylazide_125.wfx

