%nprocs=4
%mem=2GB
#p hf aug-cc-pvdz output=wfx scf=(conver=6) int=(grid=ultrafine)

title

0 1
  O   -3.475931869  -0.000000063  -0.087855349
  H   -2.501930068  -0.000000050  -0.021587774
  H   -3.789910179   0.000001147   0.818290805
  H    1.986689127   2.146980222  -0.026162115
  H   -0.496468268   2.052302040   0.037791171
  C    2.185067759   0.000000007  -0.029310792
  C    1.478484068   1.194262643  -0.010996002
  C    0.091716418   1.143668238   0.025824530
  N   -0.592818099  -0.000000010   0.045272845
  C    0.091716396  -1.143668253   0.025824563
  C    1.478484064  -1.194262631  -0.010995977
  H   -0.496468255  -2.052302047   0.037791228
  H    1.986689149  -2.146980202  -0.026162074
  H    3.265429842  -0.000000006  -0.058657649

3.044_OH-N__water--pyridine_100.wfx

