%nprocs=4
%mem=2GB
#p hf aug-cc-pvdz output=wfx scf=(conver=6) int=(grid=ultrafine)

title

0 1
  O   -2.456856240  -0.000000000   0.067839251
  H   -1.479185564  -0.000000000   0.148310503
  H   -2.792392285  -0.000000000   0.966017957
  H    1.473478374   0.000000000  -1.681517724
  H   -0.060464318   0.881611693  -1.844039502
  H   -0.060464318  -0.881611693  -1.844039502
  H    0.277966106  -2.082230858   0.208558705
  H    1.838131432  -1.289308321   0.507482579
  H    0.541622030  -1.200087780   1.715004310
  H    1.838131432   1.289308321   0.507482579
  H    0.541622030   1.200087780   1.715004310
  C    0.407434854   0.000000000  -1.410203296
  N    0.207488924  -0.000000000   0.033666849
  C    0.749964886  -1.204433680   0.646169474
  C    0.749964886   1.204433680   0.646169474
  H    0.277966106   2.082230858   0.208558705

3.045_OH-N__water--trimethylamine_090.wfx

