%nprocs=4
%mem=2GB
#p hf aug-cc-pvdz output=wfx scf=(conver=6) int=(grid=ultrafine)

title

0 1
O       -2.1640668260         0.6736285270        -0.0584414270
H       -1.9147518890        -0.2557990650         0.0264376080
H       -3.0435177560         0.6742443710        -0.4418556280

3.042_OH-N__water--methylcyanate_1.wfx

