%nprocs=4
%mem=2GB
#p hf aug-cc-pvdz output=wfx scf=(conver=6) int=(grid=ultrafine)

title

0 1
  O   -1.952573200   0.183687112   0.000000000
  H   -1.074646913  -0.247298404   0.000000000
  H   -2.591802599  -0.530867844   0.000000000
  N    0.967832010  -0.755367890   0.000000000
  H    1.245169344  -1.289729262   0.812943926
  H    1.245169344  -1.289729262  -0.812943926
  C    1.609542471   0.565846492   0.000000000
  H    1.279838956   1.119761709  -0.876570680
  H    2.702770674   0.533417966   0.000000000
  H    1.279838956   1.119761709   0.876570680

3.040_OH-N__water--methylamine_110.wfx

