%nprocs=4
%mem=2GB
#p hf aug-cc-pvdz output=wfx scf=(conver=6) int=(grid=ultrafine)

title

0 1
  O   -2.164066826   0.673628527  -0.058441427
  H   -1.914751889  -0.255799065   0.026437608
  H   -3.043517756   0.674244371  -0.441855628
  H    1.167988994   1.349913015   1.324814910
  H    1.768958979   2.052384269  -0.205149139
  H    0.024617973   1.657521342  -0.019186266
  C    1.042448620   1.388374618   0.246217478
  O    1.349241838   0.064889964  -0.310699337
  C    0.505464327  -0.853847715  -0.035778707
  N   -0.252896076  -1.696158876   0.191908533

3.042_OH-N__water--methylcyanate_100.wfx

