%nprocs=4
%mem=2GB
#p hf aug-cc-pvdz output=wfx scf=(conver=6) int=(grid=ultrafine)

title

0 1
  O   -3.475931869  -0.000000063  -0.087855349
  H   -2.501930068  -0.000000050  -0.021587774
  H   -3.789910179   0.000001147   0.818290805
  H    2.082144725   2.146980224  -0.022819084
  H   -0.401012670   2.052302042   0.041134202
  C    2.280523357   0.000000009  -0.025967761
  C    1.573939666   1.194262645  -0.007652971
  C    0.187172016   1.143668240   0.029167561
  N   -0.497362501  -0.000000008   0.048615876
  C    0.187171994  -1.143668251   0.029167594
  C    1.573939662  -1.194262629  -0.007652946
  H   -0.401012657  -2.052302045   0.041134259
  H    2.082144747  -2.146980200  -0.022819043
  H    3.360885440  -0.000000004  -0.055314618

3.044_OH-N__water--pyridine_105.wfx

