%nprocs=4
%mem=2GB
#p hf aug-cc-pvdz output=wfx scf=(conver=6) int=(grid=ultrafine)

title

0 1
  O   -3.475931869  -0.000000063  -0.087855349
  H   -2.501930068  -0.000000050  -0.021587774
  H   -3.789910179   0.000001147   0.818290805
  H    1.604866733   2.146980214  -0.039534239
  H   -0.878290662   2.052302032   0.024419047
  C    1.803245365  -0.000000001  -0.042682916
  C    1.096661674   1.194262635  -0.024368126
  C   -0.290105976   1.143668230   0.012452406
  N   -0.974640493  -0.000000018   0.031900721
  C   -0.290105998  -1.143668261   0.012452439
  C    1.096661670  -1.194262639  -0.024368101
  H   -0.878290649  -2.052302055   0.024419104
  H    1.604866755  -2.146980210  -0.039534198
  H    2.883607448  -0.000000014  -0.072029773

3.044_OH-N__water--pyridine_080.wfx

