%nprocs=4
%mem=2GB
#p hf aug-cc-pvdz output=wfx scf=(conver=6) int=(grid=ultrafine)

title

0 1
  O   -2.164066826   0.673628527  -0.058441427
  H   -1.914751889  -0.255799065   0.026437608
  H   -3.043517756   0.674244371  -0.441855628
  H    1.334174575   1.205877034   1.341362002
  H    1.935144560   1.908348288  -0.188602046
  H    0.190803554   1.513485361  -0.002639173
  C    1.208634201   1.244338637   0.262764570
  O    1.515427419  -0.079146017  -0.294152244
  C    0.671649908  -0.997883696  -0.019231614
  N   -0.086710495  -1.840194857   0.208455626

3.042_OH-N__water--methylcyanate_110.wfx

