%nprocs=4
%mem=2GB
#p hf aug-cc-pvdz output=wfx scf=(conver=6) int=(grid=ultrafine)

title

0 1
  O   -2.734992815  -0.615436303   0.076022684
  H   -1.773433311  -0.649782338  -0.023192102
  H   -3.082764985  -1.193624201  -0.605949093
  H    1.200283764   2.315889824   0.957470296
  H    1.382741556   2.525237196  -0.802474160
  H   -0.211382420   2.173338432  -0.105127326
  C    0.852083780   1.981498506  -0.020202138
  N    1.023540698   0.525386898  -0.176834926
  N    2.168161460   0.098675248  -0.069042028
  N    3.178227304  -0.396673848   0.009432154

3.041_OH-N__water--methylazide_150.wfx

