%nprocs=4
%mem=2GB
#p hf aug-cc-pvdz output=wfx scf=(conver=6) int=(grid=ultrafine)

title

0 1
  O   -1.952573200   0.183687112   0.000000000
  H   -1.074646913  -0.247298404   0.000000000
  H   -2.591802599  -0.530867844   0.000000000
  N    0.689312157  -0.686085687   0.000000000
  H    0.966649491  -1.220447059   0.812943926
  H    0.966649491  -1.220447059  -0.812943926
  C    1.331022618   0.635128695   0.000000000
  H    1.001319103   1.189043912  -0.876570680
  H    2.424250821   0.602700169   0.000000000
  H    1.001319103   1.189043912   0.876570680

3.040_OH-N__water--methylamine_095.wfx

