%nprocs=4
%mem=2GB
#p hf aug-cc-pvdz output=wfx scf=(conver=6) int=(grid=ultrafine)

title

0 1
  O   -3.475931869  -0.000000063  -0.087855349
  H   -2.501930068  -0.000000050  -0.021587774
  H   -3.789910179   0.000001147   0.818290805
  H    1.891233529   2.146980220  -0.029505146
  H   -0.591923866   2.052302038   0.034448140
  C    2.089612161   0.000000005  -0.032653823
  C    1.383028470   1.194262641  -0.014339033
  C   -0.003739180   1.143668236   0.022481499
  N   -0.688273697  -0.000000012   0.041929814
  C   -0.003739202  -1.143668255   0.022481532
  C    1.383028466  -1.194262633  -0.014339008
  H   -0.591923853  -2.052302049   0.034448197
  H    1.891233551  -2.146980204  -0.029505105
  H    3.169974244  -0.000000008  -0.062000680

3.044_OH-N__water--pyridine_095.wfx

