%nprocs=4
%mem=2GB
#p hf aug-cc-pvdz output=wfx scf=(conver=6) int=(grid=ultrafine)

title

0 1
  O   -2.164066826   0.673628527  -0.058441427
  H   -1.914751889  -0.255799065   0.026437608
  H   -3.043517756   0.674244371  -0.441855628
  H    1.001803413   1.493948996   1.308267818
  H    1.602773398   2.196420250  -0.221696232
  H   -0.141567608   1.801557323  -0.035733358
  C    0.876263039   1.532410599   0.229670386
  O    1.183056257   0.208925945  -0.327246430
  C    0.339278746  -0.709811734  -0.052325800
  N   -0.419081657  -1.552122895   0.175361440

3.042_OH-N__water--methylcyanate_090.wfx

