%nprocs=4
%mem=2GB
#p hf aug-cc-pvdz output=wfx scf=(conver=6) int=(grid=ultrafine)

title

0 1
  O   -1.952573200   0.183687112   0.000000000
  H   -1.074646913  -0.247298404   0.000000000
  H   -2.591802599  -0.530867844   0.000000000
  N    1.710551618  -0.940120430   0.000000000
  H    1.987888952  -1.474481802   0.812943926
  H    1.987888952  -1.474481802  -0.812943926
  C    2.352262080   0.381093952   0.000000000
  H    2.022558564   0.935009168  -0.876570680
  H    3.445490282   0.348665426   0.000000000
  H    2.022558564   0.935009168   0.876570680

3.040_OH-N__water--methylamine_150.wfx

