%nprocs=4
%mem=2GB
#p hf aug-cc-pvdz output=wfx scf=(conver=6) int=(grid=ultrafine)

title

0 1
H        1.6608866510         0.0000000000        -1.6942559080
C        0.5948431310         0.0000000000        -1.4229414800
H        0.1269439580        -0.8816116930        -1.8567776860
H        0.1269439580         0.8816116930        -1.8567776860
N        0.3948972010         0.0000000000         0.0209286650
C        0.9373731630        -1.2044336800         0.6334312900
C        0.9373731630         1.2044336800         0.6334312900
H        0.7290303070        -1.2000877800         1.7022661260
H        2.0255397090        -1.2893083210         0.4947443950
H        0.4653743820        -2.0822308580         0.1958205210
H        0.7290303070         1.2000877800         1.7022661260
H        2.0255397090         1.2893083210         0.4947443950
H        0.4653743820         2.0822308580         0.1958205210

3.045_OH-N__water--trimethylamine_2.wfx

