%nprocs=4
%mem=2GB
#p hf aug-cc-pvdz output=wfx scf=(conver=6) int=(grid=ultrafine)

title

0 1
  O   -2.456856240  -0.000000000   0.067839251
  H   -1.479185564  -0.000000000   0.148310503
  H   -2.792392285  -0.000000000   0.966017957
  H    1.660886651   0.000000000  -1.694255908
  H    0.126943958   0.881611693  -1.856777686
  H    0.126943958  -0.881611693  -1.856777686
  H    0.465374382  -2.082230858   0.195820521
  H    2.025539709  -1.289308321   0.494744395
  H    0.729030307  -1.200087780   1.702266126
  H    2.025539709   1.289308321   0.494744395
  H    0.729030307   1.200087780   1.702266126
  C    0.594843131   0.000000000  -1.422941480
  N    0.394897201   0.000000000   0.020928665
  C    0.937373163  -1.204433680   0.633431290
  C    0.937373163   1.204433680   0.633431290
  H    0.465374382   2.082230858   0.195820521

3.045_OH-N__water--trimethylamine_100.wfx

