%nprocs=4
%mem=2GB
#p hf aug-cc-pvdz output=wfx scf=(conver=6) int=(grid=ultrafine)

title

0 1
H       -0.5681638010         1.2068408500         0.0000015720
C       -1.5673823560         0.8120995930         0.0000007550
N       -1.7923728430        -0.5386145310        -0.0000010240
C       -2.7896973060         1.4420210380         0.0000009600
C       -3.1397727470        -0.7821102970        -0.0000017790
H       -1.0698412220        -1.2443577270        -0.0000007060
C       -3.7884484570         0.4302982060        -0.0000006290
H       -2.9493845800         2.5059129550         0.0000022070
H       -3.5244877320        -1.7858688160        -0.0000031340
H       -4.8544870580         0.5748325000        -0.0000009070

4.003_NH-N__1Hpyrrole--aniline_1.wfx

