%nprocs=4
%mem=2GB
#p hf aug-cc-pvdz output=wfx scf=(conver=6) int=(grid=ultrafine)

title

0 1
  H    1.332517238   2.101071673   0.000000000
  H    3.939832559   1.359336722   0.000000000
  H    3.943840380  -1.353390368   0.000000000
  H    1.338732396  -2.102829295   0.000000000
  N    0.978989408  -0.001410700   0.000000000
  C    1.765807023   1.117443671   0.000000000
  C    3.080449473   0.712181786   0.000000000
  C    3.082549161  -0.708779219   0.000000000
  C    1.769111148  -1.117922021   0.000000000
  H   -0.030244448  -0.002863434   0.000000000
  H   -4.668948903   0.513839737  -0.885676302
  H   -4.671700118  -1.019974897   0.000000000
  H   -4.668948903   0.513839737   0.885676302
  C   -4.297230734   0.001975882   0.000000000
  C   -2.844772520  -0.000740722   0.000000000
  N   -1.697940990  -0.002830138   0.000000000

4.001_NH-N__1Hpyrrole--acetonitrile_080.wfx

