%nprocs=4
%mem=2GB
#p hf aug-cc-pvdz output=wfx scf=(conver=6) int=(grid=ultrafine)

title

0 1
H        1.7275307270        -0.1528951020        -2.1008979030
C        2.1523183980        -0.0777838020        -1.1160497830
N        1.3746969930        -0.2166786110         0.0000000000
C        3.4478658670         0.1506111410        -0.7103112610
H        0.3646972230        -0.3732826810         0.0000000000
C        2.1523183980        -0.0777838020         1.1160497830
H        4.2954285270         0.2986710550        -1.3563178040
C        3.4478658670         0.1506111410         0.7103112610
H        1.7275307270        -0.1528951020         2.1008979030
H        4.2954285270         0.2986710550         1.3563178040

4.008_NH-N__1Hpyrrole--Nmethyl2propanimine_1.wfx

