%nprocs=4
%mem=2GB
#p hf aug-cc-pvdz output=wfx scf=(conver=6) int=(grid=ultrafine)

title

0 1
H        0.0880507120         1.8498546730         0.0000000000
C        0.7572928880         1.0084893950         0.0000000000
N        0.2812928040        -0.2743156940         0.0000000000
C        2.1323912610         0.9549330280         0.0000000000
H       -0.7049083500        -0.5310220990         0.0000000000
C        1.3323721040        -1.1490697020         0.0000000000
C        2.4981699840        -0.4176412540         0.0000000000
H        2.7972892050         1.8007257970         0.0000000000
H        1.1710616840        -2.2120010870         0.0000000000
H        3.4958449780        -0.8202036740         0.0000000000

4.006_NH-N__1Hpyrrole--methylamine_1.wfx

