%nprocs=4
%mem=2GB
#p hf aug-cc-pvdz output=wfx scf=(conver=6) int=(grid=ultrafine)

title

0 1
  H    1.727530727  -0.152895102  -2.100897903
  H    4.295428527   0.298671055  -1.356317804
  H    4.295428527   0.298671055   1.356317804
  H    1.727530727  -0.152895102   2.100897903
  N    1.374696993  -0.216678611  -0.000000000
  C    2.152318398  -0.077783802  -1.116049783
  C    3.447865867   0.150611141  -0.710311261
  C    3.447865867   0.150611141   0.710311261
  C    2.152318398  -0.077783802   1.116049783
  H    0.364697223  -0.373282681  -0.000000000
  H   -4.660515685  -0.246266296  -0.875913918
  H   -4.774158504   1.284379410   0.000000000
  H   -4.660515685  -0.246266296   0.875913918
  H   -2.555440742   2.331438856   0.875531305
  H   -3.211223536  -2.133684250  -0.882186532
  H   -3.211223536  -2.133684250   0.882186532
  H   -1.781315197  -2.675993698   0.000000000
  H   -2.555440742   2.331438856  -0.875531305
  H   -1.127657257   1.740895519   0.000000000
  C   -2.804351839   0.397438538   0.000000000
  N   -2.030069827  -0.610313805   0.000000000
  C   -2.591581687  -1.951574017   0.000000000
  C   -2.212671771   1.775921991   0.000000000
  C   -4.310213118   0.301962639   0.000000000

4.008_NH-N__1Hpyrrole--Nmethyl2propanimine_125.wfx

