%nprocs=4
%mem=2GB
#p hf aug-cc-pvdz output=wfx scf=(conver=6) int=(grid=ultrafine)

title

0 1
H        0.9186672770        -0.8157527160         2.0499655460
C        1.3123061710        -0.4679509180         1.1125214950
N        0.9264182860        -1.0371432810        -0.0709712760
C        2.2223610950         0.5234800080         0.8244567920
H        0.1891163780        -1.7163026090        -0.1625867490
C        1.5619442170        -0.4187590210        -1.1126157300
C        2.3804872480         0.5547626160        -0.5880160050
H        2.7270060440         1.1432934620         1.5443232210
H        1.3868491330        -0.7210031320        -2.1289151280
H        3.0279425720         1.2038089670        -1.1506140530

4.007_NH-N__1Hpyrrole--methylcyanate_1.wfx

