%nprocs=4
%mem=2GB
#p hf aug-cc-pvdz output=wfx scf=(conver=6) int=(grid=ultrafine)

title

0 1
  H   -1.370203934   0.128794405   2.102783594
  H   -3.957441590  -0.177439474   1.355896187
  H   -3.957441590  -0.177439474  -1.355896187
  H   -1.370203934   0.128794405  -2.102783594
  N   -1.014274211   0.172121696   0.000000000
  C   -1.798087744   0.078044167   1.117898359
  C   -3.102740897  -0.076766340   0.710444293
  C   -3.102740897  -0.076766340  -0.710444293
  C   -1.798087744   0.078044167  -1.117898359
  H   -0.005866292   0.279317938   0.000000000
  H    1.967470054   2.258467056   0.877904238
  H    3.422056763   1.683741647   0.000000000
  H    1.967470054   2.258467056  -0.877904238
  H    2.337220495  -2.384710158  -0.876967692
  H    0.874238274  -1.835720895   0.000000000
  H    2.337220495  -2.384710158   0.876967692
  C    2.333694524   1.726193367   0.000000000
  N    1.738326626   0.393285746   0.000000000
  N    2.557880122  -0.523543348   0.000000000
  C    1.963767078  -1.856162856   0.000000000

4.005_NH-N__1Hpyrrole--dimethyldiazene_085.wfx

