%nprocs=4
%mem=2GB
#p hf aug-cc-pvdz output=wfx scf=(conver=6) int=(grid=ultrafine)

title

0 1
  H    0.088050712   1.849854673   0.000000000
  H    2.797289205   1.800725797   0.000000000
  H    3.495844978  -0.820203674   0.000000000
  H    1.171061684  -2.212001087   0.000000000
  N    0.281292804  -0.274315694   0.000000000
  C    0.757292888   1.008489395   0.000000000
  C    2.132391261   0.954933028   0.000000000
  C    2.498169984  -0.417641254   0.000000000
  C    1.332372104  -1.149069702   0.000000000
  H   -0.704908350  -0.531022099   0.000000000
  N   -2.389536358  -0.682871020   0.000000000
  H   -2.732578500  -1.178674011  -0.812432369
  H   -2.732578500  -1.178674011   0.812432369
  C   -2.862684106   0.706879244   0.000000000
  H   -2.470365671   1.216789693   0.878229590
  H   -3.951092088   0.813063008   0.000000000
  H   -2.470365671   1.216789693  -0.878229590

4.006_NH-N__1Hpyrrole--methylamine_085.wfx

