%nprocs=4
%mem=2GB
#p hf aug-cc-pvdz output=wfx scf=(conver=6) int=(grid=ultrafine)

title

0 1
H       -5.0858730390         0.5138480610        -0.8856763020
C       -4.7141548700         0.0019842060         0.0000000000
C       -3.2616966560        -0.0007323980         0.0000000000
H       -5.0886242540        -1.0199665730         0.0000000000
H       -5.0858730390         0.5138480610         0.8856763020
N       -2.1148651260        -0.0028218140         0.0000000000

4.001_NH-N__1Hpyrrole--acetonitrile_2.wfx

