%nprocs=4
%mem=2GB
#p hf aug-cc-pvdz output=wfx scf=(conver=6) int=(grid=ultrafine)

title

0 1
  H   -1.370203934   0.128794405   2.102783594
  H   -3.957441590  -0.177439474   1.355896187
  H   -3.957441590  -0.177439474  -1.355896187
  H   -1.370203934   0.128794405  -2.102783594
  N   -1.014274211   0.172121696   0.000000000
  C   -1.798087744   0.078044167   1.117898359
  C   -3.102740897  -0.076766340   0.710444293
  C   -3.102740897  -0.076766340  -0.710444293
  C   -1.798087744   0.078044167  -1.117898359
  H   -0.005866292   0.279317938   0.000000000
  H    1.864870470   2.251763067   0.877904238
  H    3.319457179   1.677037658   0.000000000
  H    1.864870470   2.251763067  -0.877904238
  H    2.234620911  -2.391414147  -0.876967692
  H    0.771638690  -1.842424884   0.000000000
  H    2.234620911  -2.391414147   0.876967692
  C    2.231094940   1.719489378   0.000000000
  N    1.635727042   0.386581757   0.000000000
  N    2.455280538  -0.530247337   0.000000000
  C    1.861167494  -1.862866845   0.000000000

4.005_NH-N__1Hpyrrole--dimethyldiazene_080.wfx

