%nprocs=4
%mem=2GB
#p hf aug-cc-pvdz output=wfx scf=(conver=6) int=(grid=ultrafine)

title

0 1
H        2.2752688040         2.2785790220         0.8779042380
C        2.6414932740         1.7463053330         0.0000000000
H        2.2752688040         2.2785790220        -0.8779042380
N        2.0461253760         0.4133977120         0.0000000000
H        3.7298555130         1.7038536130         0.0000000000
N        2.8656788720        -0.5034313820         0.0000000000
C        2.2715658280        -1.8360508900         0.0000000000
H        2.6450192450        -2.3645981920        -0.8769676920
H        1.1820370240        -1.8156089290         0.0000000000
H        2.6450192450        -2.3645981920         0.8769676920

4.005_NH-N__1Hpyrrole--dimethyldiazene_2.wfx

