%nprocs=4
%mem=2GB
#p hf aug-cc-pvdz output=wfx scf=(conver=6) int=(grid=ultrafine)

title

0 1
N        2.5847626680         0.2240208530         0.0239544260
H        1.5809664360         0.3947286660        -0.0061895340
H        2.8365077970         0.0413603920         0.9871044300
H        3.0514104570         1.0811160580        -0.2442265640

4.012_NH-N__ammonia--dimethylamine_1.wfx

