%nprocs=4
%mem=2GB
#p hf aug-cc-pvdz output=wfx scf=(conver=6) int=(grid=ultrafine)

title

0 1
  N    2.760290743  -0.431650215   0.000000000
  H    1.762874329  -0.624851451   0.000000000
  H    3.161841645  -0.878790271   0.814264093
  H    3.161841645  -0.878790271  -0.814264093
  H   -3.524466617  -1.923883655   0.878241575
  H   -4.777815626  -0.989507617   0.000000000
  H   -3.524466617  -1.923883655  -0.878241575
  H   -2.680391554   2.654852357  -0.876518679
  H   -1.404964126   1.747343271   0.000000000
  H   -2.680391554   2.654852357   0.876518679
  C   -3.737283333  -1.313995629   0.000000000
  N   -2.812408547  -0.183970537   0.000000000
  N   -3.370807748   0.912101561   0.000000000
  C   -2.452080792   2.047921053   0.000000000

4.013_NH-N__ammonia--dimethyldiazene_200.wfx

