%nprocs=4
%mem=2GB
#p hf aug-cc-pvdz output=wfx scf=(conver=6) int=(grid=ultrafine)

title

0 1
  N   -2.672544687   0.000000000  -0.265348551
  H   -1.677475101   0.000000000  -0.483710111
  H   -3.084491707  -0.813088756  -0.705086623
  H   -3.084491707   0.813088756  -0.705086623
  H    2.540740600   0.000000000  -0.593733460
  H    1.464661881  -0.882837800  -1.693622922
  H    1.464661881   0.882837800  -1.693622922
  H    0.427356051   2.082511936   0.103142114
  H    1.406769881   1.279376535   1.345446224
  H   -0.367752925   1.198932907   1.409107460
  H    1.406769881  -1.279376535   1.345446224
  H   -0.367752925  -1.198932907   1.409107460
  C    1.542106668   0.000000000  -1.060379909
  N    0.469564168   0.000000000  -0.081344423
  C    0.490147348   1.200257489   0.739036051
  C    0.490147348  -1.200257489   0.739036051
  H    0.427356051  -2.082511936   0.103142114

4.017_NH-N__ammonia--trimethylamine_100.wfx

