%nprocs=4
%mem=2GB
#p hf aug-cc-pvdz output=wfx scf=(conver=6) int=(grid=ultrafine)

title

0 1
  N    2.584762668   0.224020853   0.023954426
  H    1.580966436   0.394728666  -0.006189534
  H    3.051410457   1.081116058  -0.244226564
  H    2.836507797   0.041360392   0.987104430
  H   -0.056226929  -1.271317280   1.242292948
  H   -1.136946520  -1.733864546  -0.077672027
  H    0.627877549  -1.784975971  -0.296576517
  H   -0.147602915   0.197279000  -1.286729228
  H   -1.172838610   1.974577851  -0.147607256
  H   -1.127627214   1.034879424   1.341284379
  H   -2.227143103   0.558751943   0.041810372
  C   -0.189403360  -1.230651171   0.160405812
  N   -0.142316826   0.158192162  -0.276561470
  C   -1.228812821   0.965552699   0.257531413

4.012_NH-N__ammonia--dimethylamine_080.wfx

