%nprocs=4
%mem=2GB
#p hf aug-cc-pvdz output=wfx scf=(conver=6) int=(grid=ultrafine)

title

0 1
  N   -2.672544687   0.000000000  -0.265348551
  H   -1.677475101   0.000000000  -0.483710111
  H   -3.084491707  -0.813088756  -0.705086623
  H   -3.084491707   0.813088756  -0.705086623
  H    3.077500417   0.000000000  -0.493142038
  H    2.001421698  -0.882837800  -1.593031500
  H    2.001421698   0.882837800  -1.593031500
  H    0.964115868   2.082511936   0.203733536
  H    1.943529698   1.279376535   1.446037646
  H    0.169006892   1.198932907   1.509698882
  H    1.943529698  -1.279376535   1.446037646
  H    0.169006892  -1.198932907   1.509698882
  C    2.078866485   0.000000000  -0.959788487
  N    1.006323985   0.000000000   0.019246999
  C    1.026907165   1.200257489   0.839627473
  C    1.026907165  -1.200257489   0.839627473
  H    0.964115868  -2.082511936   0.203733536

4.017_NH-N__ammonia--trimethylamine_125.wfx

