%nprocs=4
%mem=2GB
#p hf aug-cc-pvdz output=wfx scf=(conver=6) int=(grid=ultrafine)

title

0 1
  N   -3.119450836  -0.076004291   0.000000000
  H   -2.167462481   0.288213154   0.000000000
  H   -3.592829958   0.295771649   0.813635113
  H   -3.592829958   0.295771649  -0.813635113
  H    2.169243815   0.098011739  -0.875923060
  H    2.232030573  -1.435265948   0.000000000
  H    2.169243815   0.098011739   0.875923060
  H   -0.015095664  -2.411242323   0.875345550
  H    0.785423479   2.025377399  -0.881813544
  H    0.785423479   2.025377399   0.881813544
  H   -0.623457473   2.619658009   0.000000000
  H   -0.015095664  -2.411242323  -0.875345550
  H   -1.426923437  -1.774756141   0.000000000
  C    0.289669930  -0.484961162   0.000000000
  N   -0.453079699   0.545671027   0.000000000
  C    0.158178013   1.863913055   0.000000000
  C   -0.343399464  -1.845692361   0.000000000
  C    1.800171775  -0.438084218   0.000000000

4.015_NH-N__ammonia--Nmethyl2propanimine_080.wfx

