%nprocs=4
%mem=2GB
#p hf aug-cc-pvdz output=wfx scf=(conver=6) int=(grid=ultrafine)

title

0 1
N        2.7602907430        -0.4316502150         0.0000000000
H        1.7628743290        -0.6248514510         0.0000000000
H        3.1618416450        -0.8787902710        -0.8142640930
H        3.1618416450        -0.8787902710         0.8142640930

4.013_NH-N__ammonia--dimethyldiazene_1.wfx

