%nprocs=4
%mem=2GB
#p hf aug-cc-pvdz output=wfx scf=(conver=6) int=(grid=ultrafine)

title

0 1
N       -1.6548831450        -0.0000000040        -0.0606936130
H       -2.0801281570        -0.8128400070         0.3669679280
H       -0.6699880290         0.0000000780         0.1922479370
H       -2.0801282990         0.8128399570         0.3669678690

4.011_NH-N__ammonia--ammonia_1.wfx

