%nprocs=4
%mem=2GB
#p hf aug-cc-pvdz output=wfx scf=(conver=6) int=(grid=ultrafine)

title

0 1
N       -3.5951130020        -0.0744070350         0.0000000000
H       -4.1223844250         0.2156510980        -0.8135794570
H       -4.1223844250         0.2156510980         0.8135794570
H       -2.7197333270         0.4433799290         0.0000000000

4.016_NH-N__ammonia--pyridine_1.wfx

