%nprocs=4
%mem=2GB
#p hf aug-cc-pvdz output=wfx scf=(conver=6) int=(grid=ultrafine)

title

0 1
  N   -2.672544687   0.000000000  -0.265348551
  H   -1.677475101   0.000000000  -0.483710111
  H   -3.084491707  -0.813088756  -0.705086623
  H   -3.084491707   0.813088756  -0.705086623
  H    2.111332746   0.000000000  -0.674206598
  H    1.035254027  -0.882837800  -1.774096060
  H    1.035254027   0.882837800  -1.774096060
  H   -0.002051803   2.082511936   0.022668976
  H    0.977362027   1.279376535   1.264973086
  H   -0.797160779   1.198932907   1.328634322
  H    0.977362027  -1.279376535   1.264973086
  H   -0.797160779  -1.198932907   1.328634322
  C    1.112698814   0.000000000  -1.140853047
  N    0.040156314   0.000000000  -0.161817561
  C    0.060739494   1.200257489   0.658562913
  C    0.060739494  -1.200257489   0.658562913
  H   -0.002051803  -2.082511936   0.022668976

4.017_NH-N__ammonia--trimethylamine_080.wfx

