%nprocs=4
%mem=2GB
#p hf aug-cc-pvdz output=wfx scf=(conver=6) int=(grid=ultrafine)

title

0 1
  N    2.760290743  -0.431650215   0.000000000
  H    1.762874329  -0.624851451   0.000000000
  H    3.161841645  -0.878790271   0.814264093
  H    3.161841645  -0.878790271  -0.814264093
  H   -1.351207251  -2.133302089   0.878241575
  H   -2.604556260  -1.198926051   0.000000000
  H   -1.351207251  -2.133302089  -0.878241575
  H   -0.507132188   2.445433923  -0.876518679
  H    0.768295240   1.537924837   0.000000000
  H   -0.507132188   2.445433923   0.876518679
  C   -1.564023967  -1.523414063   0.000000000
  N   -0.639149181  -0.393388971   0.000000000
  N   -1.197548382   0.702683127   0.000000000
  C   -0.278821426   1.838502619   0.000000000

4.013_NH-N__ammonia--dimethyldiazene_105.wfx

