%nprocs=4
%mem=2GB
#p hf aug-cc-pvdz output=wfx scf=(conver=6) int=(grid=ultrafine)

title

0 1
N        3.7274680140        -0.5776682620        -0.3309207460
H        4.5557384730        -0.1982115910        -0.7721637090
H        3.2841020410        -1.1933621980        -1.0017576870
H        4.0361336380        -1.1498572210         0.4451921610

4.018_NH-N__aniline--ammonia_2.wfx

