%nprocs=4
%mem=2GB
#p hf aug-cc-pvdz output=wfx scf=(conver=6) int=(grid=ultrafine)

title

0 1
  N   -1.654883145  -0.000000004  -0.060693613
  H   -0.669988029   0.000000078   0.192247937
  H   -2.080128157  -0.812840007   0.366967928
  H   -2.080128299   0.812839957   0.366967869
  N    1.813765406  -0.000000013   0.007720043
  H    2.356018433  -0.815292114   0.263741909
  H    2.356018267   0.815292189   0.263741946
  H    1.725452102  -0.000000002  -1.000967132

4.011_NH-N__ammonia--ammonia_110.wfx

