%nprocs=4
%mem=2GB
#p hf aug-cc-pvdz output=wfx scf=(conver=6) int=(grid=ultrafine)

title

0 1
H       -1.2463876160        -2.0654217650         0.0080744640
C       -1.7066607510        -1.0937437610         0.0061413500
C       -3.0335235810        -0.7284830330        -0.0031979800
N       -0.9509489240         0.0465683080         0.0133909170
H       -3.8736827240        -1.4004601350        -0.0103242100
C       -3.0772479190         0.6913318870        -0.0016488330
H        0.0711194230         0.0747084670         0.0197105120
C       -1.7754147150         1.1377785470         0.0086084250
H       -3.9571731190         1.3103264920        -0.0074109060
H       -1.3763705010         2.1361621530         0.0128095690

4.010_NH-N__1Hpyrrole--trimethylamine_1.wfx

