%nprocs=4
%mem=2GB
#p hf aug-cc-pvdz output=wfx scf=(conver=6) int=(grid=ultrafine)

title

0 1
  N   -2.122607070   0.107973100   0.048841426
  H   -1.238203179  -0.344137733  -0.173760739
  H   -2.817041333  -0.618313924   0.169396541
  H   -2.401379739   0.649474224  -0.759530311
  N    0.723361739  -0.687752441  -0.054060339
  H    1.353688893  -1.219761789  -0.638930050
  H    0.747432707  -1.109249691   0.865164218
  C    1.128394701   0.719644272   0.012257939
  H    0.405014203   1.267107609   0.613789373
  H    2.126075380   0.888224435   0.430952316
  H    1.107207840   1.144563475  -0.990431346

4.014_NH-N__ammonia--methylamine_090.wfx

