%nprocs=4
%mem=2GB
#p hf aug-cc-pvdz output=wfx scf=(conver=6) int=(grid=ultrafine)

title

0 1
H       -0.4870477450        -1.3304514060         1.1746999640
C       -0.6202241760        -1.2897852970         0.0928128280
H       -1.5677673360        -1.7929986720        -0.1452650110
N       -0.5731376420         0.0990580360        -0.3441544540
H        0.1970567330        -1.8441100970        -0.3641695010
H       -0.5784237310         0.1381448740        -1.3543222120
C       -1.6596336370         0.9064185730         0.1899384290
H       -2.6579639190         0.4996178170        -0.0257826120
H       -1.6036594260         1.9154437250        -0.2152002400
H       -1.5584480300         0.9757452980         1.2736913950

4.012_NH-N__ammonia--dimethylamine_2.wfx

