%nprocs=4
%mem=2GB
#p hf aug-cc-pvdz output=wfx scf=(conver=6) int=(grid=ultrafine)

title

0 1
  N    2.760290743  -0.431650215   0.000000000
  H    1.762874329  -0.624851451   0.000000000
  H    3.161841645  -0.878790271   0.814264093
  H    3.161841645  -0.878790271  -0.814264093
  H   -1.808735538  -2.089213998   0.878241575
  H   -3.062084548  -1.154837960   0.000000000
  H   -1.808735538  -2.089213998  -0.878241575
  H   -0.964660476   2.489522014  -0.876518679
  H    0.310766952   1.582012928   0.000000000
  H   -0.964660476   2.489522014   0.876518679
  C   -2.021552254  -1.479325972   0.000000000
  N   -1.096677468  -0.349300880   0.000000000
  N   -1.655076670   0.746771218   0.000000000
  C   -0.736349714   1.882590710   0.000000000

4.013_NH-N__ammonia--dimethyldiazene_125.wfx

