%nprocs=4
%mem=2GB
#p hf aug-cc-pvdz output=wfx scf=(conver=6) int=(grid=ultrafine)

title

0 1
  N   -3.595113002  -0.074407035   0.000000000
  H   -2.719733327   0.443379929   0.000000000
  H   -4.122384425   0.215651098   0.813579457
  H   -4.122384425   0.215651098  -0.813579457
  H    1.639225564  -2.419948704   0.000000000
  H   -0.631269574  -1.393499184   0.000000000
  C    2.631855532  -0.506619069   0.000000000
  C    1.526952222  -1.345663325   0.000000000
  C    0.259100790  -0.777391667   0.000000000
  N    0.052278686   0.540856238   0.000000000
  C    1.119650510   1.339015675   0.000000000
  C    2.425349972   0.865843204   0.000000000
  H    0.922152004   2.403956034   0.000000000
  H    3.254627880   1.557993117   0.000000000
  H    3.633452526  -0.913088471   0.000000000

4.016_NH-N__ammonia--pyridine_125.wfx

