%nprocs=4
%mem=2GB
#p hf aug-cc-pvdz output=wfx scf=(conver=6) int=(grid=ultrafine)

title

0 1
  N   -3.595113002  -0.074407035   0.000000000
  H   -2.719733327   0.443379929   0.000000000
  H   -4.122384425   0.215651098   0.813579457
  H   -4.122384425   0.215651098  -0.813579457
  H    0.641301240  -2.455040175   0.000000000
  H   -1.629193898  -1.428590655   0.000000000
  C    1.633931207  -0.541710540   0.000000000
  C    0.529027897  -1.380754796   0.000000000
  C   -0.738823535  -0.812483138   0.000000000
  N   -0.945645639   0.505764767   0.000000000
  C    0.121726186   1.303924204   0.000000000
  C    1.427425647   0.830751733   0.000000000
  H   -0.075772321   2.368864563   0.000000000
  H    2.256703556   1.522901646   0.000000000
  H    2.635528201  -0.948179942   0.000000000

4.016_NH-N__ammonia--pyridine_080.wfx

