%nprocs=4
%mem=2GB
#p hf aug-cc-pvdz output=wfx scf=(conver=6) int=(grid=ultrafine)

title

0 1
  N   -1.654883145  -0.000000004  -0.060693613
  H   -0.669988029   0.000000078   0.192247937
  H   -2.080128157  -0.812840007   0.366967928
  H   -2.080128299   0.812839957   0.366967869
  N    1.136378105   0.000000012   0.058045832
  H    1.678631132  -0.815292089   0.314067698
  H    1.678630966   0.815292214   0.314067735
  H    1.048064801   0.000000023  -0.950641343

4.011_NH-N__ammonia--ammonia_080.wfx

