%nprocs=4
%mem=2GB
#p hf aug-cc-pvdz output=wfx scf=(conver=6) int=(grid=ultrafine)

title

0 1
  N    2.584762668   0.224020853   0.023954426
  H    1.580966436   0.394728666  -0.006189534
  H    3.051410457   1.081116058  -0.244226564
  H    2.836507797   0.041360392   0.987104430
  H   -1.025573764  -1.404369064   1.090208734
  H   -2.106293356  -1.866916330  -0.229756241
  H   -0.341469286  -1.918027754  -0.448660731
  H   -1.116949750   0.064227216  -1.438813442
  H   -2.142185446   1.841526068  -0.299691470
  H   -2.096974050   0.901827640   1.189200165
  H   -3.196489938   0.425700160  -0.110273842
  C   -1.158750196  -1.363702954   0.008321598
  N   -1.111663662   0.025140378  -0.428645684
  C   -2.198159656   0.832500916   0.105447199

4.012_NH-N__ammonia--dimethylamine_125.wfx

