%nprocs=4
%mem=2GB
#p hf aug-cc-pvdz output=wfx scf=(conver=6) int=(grid=ultrafine)

title

0 1
  N   -1.654883145  -0.000000004  -0.060693613
  H   -0.669988029   0.000000078   0.192247937
  H   -2.080128157  -0.812840007   0.366967928
  H   -2.080128299   0.812839957   0.366967869
  N    2.716948473  -0.000000046  -0.059381010
  H    3.259201500  -0.815292148   0.196640856
  H    3.259201334   0.815292156   0.196640894
  H    2.628635169  -0.000000036  -1.068068184

4.011_NH-N__ammonia--ammonia_150.wfx

