%nprocs=4
%mem=2GB
#p hf aug-cc-pvdz output=wfx scf=(conver=6) int=(grid=ultrafine)

title

0 1
  N    2.760290743  -0.431650215   0.000000000
  H    1.762874329  -0.624851451   0.000000000
  H    3.161841645  -0.878790271   0.814264093
  H    3.161841645  -0.878790271  -0.814264093
  H   -1.465589323  -2.122280066   0.878241575
  H   -2.718938332  -1.187904028   0.000000000
  H   -1.465589323  -2.122280066  -0.878241575
  H   -0.621514260   2.456455946  -0.876518679
  H    0.653913168   1.548946860   0.000000000
  H   -0.621514260   2.456455946   0.876518679
  C   -1.678406039  -1.512392040   0.000000000
  N   -0.753531253  -0.382366948   0.000000000
  N   -1.311930454   0.713705150   0.000000000
  C   -0.393203498   1.849524642   0.000000000

4.013_NH-N__ammonia--dimethyldiazene_110.wfx

