%nprocs=4
%mem=2GB
#p hf aug-cc-pvdz output=wfx scf=(conver=6) int=(grid=ultrafine)

title

0 1
  N   -2.122607070   0.107973100   0.048841426
  H   -1.238203179  -0.344137733  -0.173760739
  H   -2.817041333  -0.618313924   0.169396541
  H   -2.401379739   0.649474224  -0.759530311
  N    0.614385911  -0.668662735  -0.060710362
  H    1.244713065  -1.200672083  -0.645580073
  H    0.638456879  -1.090159985   0.858514195
  C    1.019418873   0.738733978   0.005607916
  H    0.296038375   1.286197315   0.607139350
  H    2.017099552   0.907314141   0.424302293
  H    0.998232012   1.163653181  -0.997081369

4.014_NH-N__ammonia--methylamine_085.wfx

