%nprocs=4
%mem=2GB
#p hf aug-cc-pvdz output=wfx scf=(conver=6) int=(grid=ultrafine)

title

0 1
N       -2.1226070700         0.1079731000         0.0488414260
H       -1.2382031790        -0.3441377330        -0.1737607390
H       -2.8170413330        -0.6183139240         0.1693965410
H       -2.4013797390         0.6494742240        -0.7595303110

4.014_NH-N__ammonia--methylamine_1.wfx

