%nprocs=4
%mem=2GB
#p hf aug-cc-pvdz output=wfx scf=(conver=6) int=(grid=ultrafine)

title

0 1
  N   -1.654883145  -0.000000004  -0.060693613
  H   -0.669988029   0.000000078   0.192247937
  H   -2.080128157  -0.812840007   0.366967928
  H   -2.080128299   0.812839957   0.366967869
  N    1.475071756  -0.000000001   0.032882938
  H    2.017324783  -0.815292102   0.288904804
  H    2.017324617   0.815292201   0.288904841
  H    1.386758452   0.000000010  -0.975804237

4.011_NH-N__ammonia--ammonia_095.wfx

