%nprocs=4
%mem=2GB
#p hf aug-cc-pvdz output=wfx scf=(conver=6) int=(grid=ultrafine)

title

0 1
N       -2.6725446870         0.0000000000        -0.2653485510
H       -3.0844917070        -0.8130887560        -0.7050866230
H       -3.0844917070         0.8130887560        -0.7050866230
H       -1.6774751010         0.0000000000        -0.4837101110

4.017_NH-N__ammonia--trimethylamine_1.wfx

