%nprocs=4
%mem=2GB
#p hf aug-cc-pvdz output=wfx scf=(conver=6) int=(grid=ultrafine)

title

0 1
  N   -2.672544687   0.000000000  -0.265348551
  H   -1.677475101   0.000000000  -0.483710111
  H   -3.084491707  -0.813088756  -0.705086623
  H   -3.084491707   0.813088756  -0.705086623
  H    2.755444527   0.000000000  -0.553496891
  H    1.679365808  -0.882837800  -1.653386353
  H    1.679365808   0.882837800  -1.653386353
  H    0.642059978   2.082511936   0.143378683
  H    1.621473808   1.279376535   1.385682793
  H   -0.153048998   1.198932907   1.449344029
  H    1.621473808  -1.279376535   1.385682793
  H   -0.153048998  -1.198932907   1.449344029
  C    1.756810595   0.000000000  -1.020143340
  N    0.684268095   0.000000000  -0.041107854
  C    0.704851275   1.200257489   0.779272620
  C    0.704851275  -1.200257489   0.779272620
  H    0.642059978  -2.082511936   0.143378683

4.017_NH-N__ammonia--trimethylamine_110.wfx

