%nprocs=4
%mem=2GB
#p hf aug-cc-pvdz output=wfx scf=(conver=6) int=(grid=ultrafine)

title

0 1
N        3.2936085760        -0.2147150140         0.3084201150
C        2.9998254800        -0.6692792870        -1.0560596600
H        3.2565640080        -0.9886991190         0.9588762450
H        4.2277864540         0.1687375430         0.3675645790
H        1.9817245250        -1.0520317600        -1.0919435000
H        3.0508972260         0.1815898610        -1.7333517070
H        3.6753389870        -1.4446479870        -1.4295133500

4.022_NH-N__aniline--methylamine_2.wfx

