%nprocs=4
%mem=2GB
#p hf aug-cc-pvdz output=wfx scf=(conver=6) int=(grid=ultrafine)

title

0 1
H        1.6818148930        -1.3353505690        -1.9887187910
C        1.3293945650        -1.6848452400        -1.0220774320
H        0.3452590320        -1.2919284420        -0.7928046420
H        1.3386779820        -2.7665065680        -0.9750559880
O        2.2756050670        -1.2586052850         0.0116385180
C        2.4461382880         0.0025212340         0.1306589790
N        2.6386865710         1.1335145260         0.2679624670

4.023_NH-N__aniline--methylcyanate_2.wfx

