%nprocs=4
%mem=2GB
#p hf aug-cc-pvdz output=wfx scf=(conver=6) int=(grid=ultrafine)

title

0 1
H       -0.2198541050         0.7748482970         2.0959112290
C       -0.7519797740         0.3923191730         1.2351477120
C       -1.4884022360        -0.7781034540         1.3367724910
C       -0.6777982910         1.0767017800         0.0201824800
C       -2.1629377080        -1.2897947560         0.2347044920
H       -1.5310722220        -1.2950263870         2.2851491840
C       -1.3575945810         0.5619116690        -1.0857289890
N        0.1307253090         2.2108186820        -0.1069633830
H       -2.7332469440        -2.2030132430         0.3168141770
C       -2.0914521150        -0.6092385040        -0.9748946800
H       -1.2994544360         1.0778315740        -2.0351528790
H       -0.1133125200         2.8272441990        -0.8646462410
H        0.2921564330         2.7180146860         0.7476608220
H       -2.6088497290        -0.9931670330        -1.8428618840

4.029_NH-N__dimethylamine--aniline_2.wfx

