%nprocs=4
%mem=2GB
#p hf aug-cc-pvdz output=wfx scf=(conver=6) int=(grid=ultrafine)

title

0 1
  H   -2.244111562   1.285322419   0.205481390
  H   -1.220631112   1.256452127  -1.235255710
  H   -0.673400262   2.081630632   0.237561012
  H    0.392014890   0.000000000   0.198501901
  H   -0.673400262  -2.081630632   0.237561012
  H   -2.244111562  -1.285322419   0.205481390
  H   -1.220631112  -1.256452127  -1.235255710
  C   -1.208955397   1.208540059  -0.133824979
  N   -0.603695898   0.000000000   0.392539194
  C   -1.208955397  -1.208540059  -0.133824979
  N    3.707864690   0.000000000  -0.183985565
  H    4.014743076   0.000000000   0.780710751
  H    4.110046702  -0.815286226  -0.628905982
  H    4.110046702   0.815286226  -0.628905982

4.028_NH-N__dimethylamine--ammonia_150.wfx

