%nprocs=4
%mem=2GB
#p hf aug-cc-pvdz output=wfx scf=(conver=6) int=(grid=ultrafine)

title

0 1
H        2.5486773910        -2.0945711290        -1.1301110160
C        1.8482338210        -1.2611299010        -1.0483700450
N        2.5232843660        -0.1141892720        -0.4625498270
H        0.9802666590        -1.6051655830        -0.4682812670
H        1.5069136090        -1.0136922850        -2.0521557030
C        2.9247908180        -0.3426471450         0.9135460340
H        1.9207569640         0.6966452920        -0.5069836840
H        2.0987998840        -0.6657034030         1.5663516170
H        3.6931812460        -1.1172434910         0.9498280740
H        3.3542560730         0.5683615760         1.3293282030

4.029_NH-N__dimethylamine--aniline_1.wfx

