%nprocs=4
%mem=2GB
#p hf aug-cc-pvdz output=wfx scf=(conver=6) int=(grid=ultrafine)

title

0 1
H        3.5167025520         0.8947107630         0.0000000000
C        2.4342789700         1.0096674240         0.0000000000
C        1.7911049170        -0.2933306890         0.0000000000
H        2.1384871930         1.5706795100        -0.8844446090
H        2.1384871930         1.5706795100         0.8844446090
N        1.2783600740        -1.3206128090         0.0000000000

4.027_NH-N__dimethylamine--acetonitrile_2.wfx

