%nprocs=4
%mem=2GB
#p hf aug-cc-pvdz output=wfx scf=(conver=6) int=(grid=ultrafine)

title

0 1
  H   -2.486652561   1.098511774  -1.278416863
  H   -0.724688219   0.950434259  -1.251370383
  H   -1.712016863  -0.266892172  -2.081735500
  H   -1.122208145  -1.148965385   0.000000000
  H   -1.712016863  -0.266892172   2.081735500
  H   -2.486652561   1.098511774   1.278416863
  H   -0.724688219   0.950434259   1.251370383
  C   -1.668211310   0.380075321  -1.207384204
  N   -1.812145176  -0.409702860   0.000000000
  C   -1.668211310   0.380075321   1.207384204
  H    3.156617319   0.920457877   0.000000000
  H    1.778401960   1.596426624  -0.884444609
  H    1.778401960   1.596426624   0.884444609
  C    2.074193737   1.035414538   0.000000000
  C    1.431019684  -0.267583575   0.000000000
  N    0.918274841  -1.294865695   0.000000000

4.027_NH-N__dimethylamine--acetonitrile_085.wfx

