%nprocs=4
%mem=2GB
#p hf aug-cc-pvdz output=wfx scf=(conver=6) int=(grid=ultrafine)

title

0 1
H        3.4959709340        -0.3195561650         0.8759139250
C        3.1668860610         0.2419560310         0.0000000000
C        1.6640851300         0.3979768290         0.0000000000
H        3.4959709340        -0.3195561650        -0.8759139250
H        3.6698614050         1.2051996240         0.0000000000
N        0.8488942040        -0.5763649770         0.0000000000
C        1.1296474160         1.8004633580         0.0000000000
C        1.3608695270        -1.9361180740         0.0000000000
H        1.4973653300         2.3411845220        -0.8753132920
H        0.0433284320         1.8064035190         0.0000000000
H        1.4973653300         2.3411845220         0.8753132920
H        1.9742667300        -2.1431584480        -0.8819097360
H        1.9742667300        -2.1431584480         0.8819097360
H        0.5254870440        -2.6318634990         0.0000000000

4.033_NH-N__dimethylamine--Nmethyl2propanimine_2.wfx

