%nprocs=4
%mem=2GB
#p hf aug-cc-pvdz output=wfx scf=(conver=6) int=(grid=ultrafine)

title

0 1
  H   -3.781713200   0.499789709   1.294531387
  H   -3.109056295  -1.134189570   1.254762795
  H   -2.237958484   0.172541951   2.079712003
  H   -1.211748947  -0.083925505   0.000000000
  H   -2.237958484   0.172541951  -2.079712003
  H   -3.781713200   0.499789709  -1.294531387
  H   -3.109056295  -1.134189570  -1.254762795
  C   -2.849822159  -0.063582297   1.209724225
  N   -2.146403305   0.315667599   0.000000000
  C   -2.849822159  -0.063582297  -1.209724225
  H    3.289906619  -0.270312218   0.875913925
  H    3.463797090   1.254443571   0.000000000
  H    3.289906619  -0.270312218  -0.875913925
  H    1.291301015   2.390428469  -0.875313292
  H    1.768202415  -2.093914501   0.881909736
  H    1.768202415  -2.093914501  -0.881909736
  H    0.319422729  -2.582619552   0.000000000
  H    1.291301015   2.390428469   0.875313292
  H   -0.162735883   1.855647466   0.000000000
  C    1.458020815   0.447220776   0.000000000
  N    0.642829889  -0.527121030   0.000000000
  C    1.154805212  -1.886874127   0.000000000
  C    0.923583101   1.849707305   0.000000000
  C    2.960821746   0.291199978   0.000000000

4.033_NH-N__dimethylamine--Nmethyl2propanimine_090.wfx

