%nprocs=4
%mem=2GB
#p hf aug-cc-pvdz output=wfx scf=(conver=6) int=(grid=ultrafine)

title

0 1
N        2.2558416930         0.1217438520         0.0227603040
H        2.3367526860        -0.1728718590        -0.9424988430
H        2.9757876580        -0.3589874990         0.5469748110
H        2.4683432060         1.1107443250         0.0555138060

4.037_NH-N__methylamine--ammonia_2.wfx

