%nprocs=4
%mem=2GB
#p hf aug-cc-pvdz output=wfx scf=(conver=6) int=(grid=ultrafine)

title

0 1
H        2.2799236310        -2.1465957740        -0.7152262660
C        1.9227769970        -1.1930729360        -0.3548525430
C        0.9417252400        -1.1403594230         0.6267717260
C        2.4236183410         0.0000033330        -0.8558074210
H        0.5263338100        -2.0527687800         1.0359598140
N        0.4541536380         0.0000039040         1.1160220480
C        1.9227617130         1.1930798560        -0.3548684630
H        3.1864136370         0.0000030930        -1.6214875670
C        0.9417106280         1.1403669160         0.6267564910
H        2.2798961600         2.1466024310        -0.7152549300
H        0.5263075340         2.0527763810         1.0359323830

4.034_NH-N__dimethylamine--pyridine_2.wfx

