%nprocs=4
%mem=2GB
#p hf aug-cc-pvdz output=wfx scf=(conver=6) int=(grid=ultrafine)

title

0 1
  N   -0.884101126  -0.681387473  -0.069541677
  H    0.088170033  -0.487710679   0.148735491
  H   -1.213579512  -1.368555024   0.594944779
  C   -1.679766174   0.540233720   0.016954691
  H   -2.716435461   0.325500967  -0.243685036
  H   -1.675988310   1.029804861   0.999590641
  H   -1.309070780   1.261636343  -0.711516426
  N    2.039074527   0.060798399   0.035357823
  H    2.119985520  -0.233817312  -0.929901324
  H    2.251576040   1.049798872   0.068111325
  H    2.759020492  -0.419932952   0.559572330

4.037_NH-N__methylamine--ammonia_090.wfx

