%nprocs=4
%mem=2GB
#p hf aug-cc-pvdz output=wfx scf=(conver=6) int=(grid=ultrafine)

title

0 1
  N    2.264148055  -0.428237459  -0.124151649
  H    1.481586218  -1.069931740  -0.149833010
  H    2.852920550  -0.711089118   0.647497866
  C    1.789924404   0.938056608   0.063637384
  H    2.640829402   1.616340136   0.123582257
  H    1.171569577   1.096455008   0.957797370
  H    1.203728008   1.236697234  -0.806148643
  H   -2.423009705   1.099884477   0.807085953
  H   -1.052680894   1.797888086  -0.071200935
  H   -2.390526656   1.054406105  -0.962717621
  C   -1.780084007   0.988279325  -0.064032055
  C   -1.092404876  -0.290823201  -0.018741945
  N   -0.540664032  -1.297139317   0.015667126

4.036_NH-N__methylamine--acetonitrile_085.wfx

