%nprocs=4
%mem=2GB
#p hf aug-cc-pvdz output=wfx scf=(conver=6) int=(grid=ultrafine)

title

0 1
H        1.2645975130        -2.5550536420        -0.4967128760
C        0.8387760700        -1.8612455050         0.2282250260
N        0.8935726520        -0.5211424790        -0.3468708300
H       -0.2131256660        -2.1201673950         0.3509580670
H        1.3701162320        -1.9201197490         1.1780146140
N        1.4998693440         0.2958977020         0.3440436230
C        1.5295188490         1.6382969280        -0.2277789050
H        1.0165476100         1.6887199930        -1.1888702340
H        2.5724284510         1.9372185200        -0.3325739810
H        1.0675660710         2.3170919620         0.4893610800

4.039_NH-N__methylamine--dimethyldiazene_2.wfx

