%nprocs=4
%mem=2GB
#p hf aug-cc-pvdz output=wfx scf=(conver=6) int=(grid=ultrafine)

title

0 1
  N   -0.884101126  -0.681387473  -0.069541677
  H    0.088170033  -0.487710679   0.148735491
  H   -1.213579512  -1.368555024   0.594944779
  C   -1.679766174   0.540233720   0.016954691
  H   -2.716435461   0.325500967  -0.243685036
  H   -1.675988310   1.029804861   0.999590641
  H   -1.309070780   1.261636343  -0.711516426
  N    3.339677523   0.426471118  -0.040227290
  H    3.420588516   0.131855406  -1.005486436
  H    3.552179036   1.415471590  -0.007473787
  H    4.059623488  -0.054260234   0.483987218

4.037_NH-N__methylamine--ammonia_150.wfx

