%nprocs=4
%mem=2GB
#p hf aug-cc-pvdz output=wfx scf=(conver=6) int=(grid=ultrafine)

title

0 1
H       -2.5635132010         1.5551505430         1.1748236870
C       -1.6176660900         1.1247587550         0.8419097820
N       -1.8017775540         0.4680525370        -0.4391429950
H       -1.2620860620         0.4522392890         1.6392968560
H       -0.9006816790         1.9381327590         0.7407749480
C       -2.7016232700        -0.6681427050        -0.3676430040
H       -0.9016408140         0.1702796520        -0.7946629650
H       -3.7091865980        -0.3275977230        -0.1227964380
H       -2.7445211850        -1.1672030380        -1.3345618760
H       -2.4158240940        -1.4143810400         0.3923867150

4.031_NH-N__dimethylamine--dimethyldiazene_1.wfx

