%nprocs=4
%mem=2GB
#p hf aug-cc-pvdz output=wfx scf=(conver=6) int=(grid=ultrafine)

title

0 1
H       -3.2502833830        -0.9133036730         0.1296611310
C       -2.1670810560        -1.0367141410         0.1910763960
H       -1.8333951150        -1.4806379860        -0.7617713050
H       -1.9596294860        -1.7500699760         0.9877748050
N       -1.5386648900         0.2346292090         0.4945999820
C       -1.6902961860         1.2064343850        -0.5707104550
H       -0.5524845730         0.0913886980         0.6891402180
H       -1.1492614090         2.1179431640        -0.3193582530
H       -2.7434382370         1.4686465570        -0.6908777020
H       -1.3289973930         0.8520939510        -1.5512133210

4.030_NH-N__dimethylamine--dimethylamine_1.wfx

