%nprocs=4
%mem=2GB
#p hf aug-cc-pvdz output=wfx scf=(conver=6) int=(grid=ultrafine)

title

0 1
  N   -2.215224378  -0.298360416  -0.514556461
  H   -1.330415481  -0.254940679  -1.005862023
  H   -2.947226756  -0.116073706  -1.187460994
  C   -2.243963812   0.684797155   0.566405837
  H   -3.189149747   0.609559802   1.103168998
  H   -2.119627517   1.727213581   0.247710700
  H   -1.449834676   0.459352366   1.277381527
  H    0.819799886  -2.501813282  -0.628511115
  H    0.925318605  -1.866879389   1.046216375
  H   -0.657923293  -2.066927035   0.219159828
  H    0.622768444   2.370332322   0.357562841
  H    0.571749983   1.741960353  -1.320668473
  H    2.127630824   1.990458880  -0.464372220
  C    0.393978443  -1.808005145   0.096426787
  N    0.448775025  -0.467902119  -0.478669069
  N    1.055071717   0.349138062   0.212245384
  C    1.084721222   1.691537288  -0.359577144

4.039_NH-N__methylamine--dimethyldiazene_080.wfx

