%nprocs=4
%mem=2GB
#p hf aug-cc-pvdz output=wfx scf=(conver=6) int=(grid=ultrafine)

title

0 1
  N   -0.884101126  -0.681387473  -0.069541677
  H    0.088170033  -0.487710679   0.148735491
  H   -1.213579512  -1.368555024   0.594944779
  C   -1.679766174   0.540233720   0.016954691
  H   -2.716435461   0.325500967  -0.243685036
  H   -1.675988310   1.029804861   0.999590641
  H   -1.309070780   1.261636343  -0.711516426
  N    2.364225276   0.152216579   0.016461545
  H    2.445136269  -0.142399132  -0.948797602
  H    2.576726789   1.141217052   0.049215047
  H    3.084171241  -0.328514772   0.540676052

4.037_NH-N__methylamine--ammonia_105.wfx

