%nprocs=4
%mem=2GB
#p hf aug-cc-pvdz output=wfx scf=(conver=6) int=(grid=ultrafine)

title

0 1
H        0.8878914330        -0.7542154270        -1.4263287250
C        1.5564715300        -1.1591373820        -0.6658946030
H        1.1622944190        -2.1263098300        -0.3592775290
H        2.5394605800        -1.3134570520        -1.1322653840
N        1.5883610060        -0.2554093510         0.4754063580
H        2.0860402390        -0.6840280010         1.2433053000
C        2.1752824050         1.0398843070         0.1624006230
H        1.5465814350         1.5528203530        -0.5660070050
H        2.2136662560         1.6535840260         1.0605910800
H        3.1878961590         0.9729432940        -0.2595419950

4.030_NH-N__dimethylamine--dimethylamine_2.wfx

