%nprocs=4
%mem=2GB
#p hf aug-cc-pvdz output=wfx scf=(conver=6) int=(grid=ultrafine)

title

0 1
N       -2.5246083630         0.2027773460        -0.5885007770
H       -2.7969495900        -0.4442862050        -1.3170655350
C       -2.9199008010        -0.3024556180         0.7318584210
H       -2.9908060370         1.0776155040        -0.7909855230
H       -3.9940172430        -0.4727230400         0.8466871240
H       -2.4029031260        -1.2406787840         0.9249050810
H       -2.6016148250         0.4058203310         1.4946388990

4.049_NH-N__Nmethylacetamide--methylamine_2.wfx

