%nprocs=4
%mem=2GB
#p hf aug-cc-pvdz output=wfx scf=(conver=6) int=(grid=ultrafine)

title

0 1
N       -2.0632497970        -0.7049440790        -0.1549662340
H       -2.4255269640        -1.3581019990        -0.8362775690
H       -1.1065672020        -0.4834288160        -0.4174445010
C       -2.8773481180         0.5071523040        -0.1181944580
H       -2.9323163870         1.0589192900        -1.0653464590
H       -3.8955508070         0.2597715890         0.1824460180
H       -2.4760958660         1.1855050600         0.6348135430

4.043_NH-N__methylamine--trimethylamine_1.wfx

