%nprocs=4
%mem=2GB
#p hf aug-cc-pvdz output=wfx scf=(conver=6) int=(grid=ultrafine)

title

0 1
C        1.2760265240        -1.5190772410        -0.9753603740
H        1.7076619430        -1.6046264650        -1.9708753450
C        1.9586974750        -0.3781351240        -0.2459943180
H        0.1986890740        -1.3917236570        -1.0595701740
H        1.4881714050        -2.4473068850        -0.4473289880
N        1.1393570680         0.5978479590         0.2111623000
O        3.1686759250        -0.3521204360        -0.0825716500
C        1.6650427580         1.7422495360         0.9264373240
H        0.1426452840         0.5330695690         0.0507823260
H        0.8333742130         2.3666195340         1.2438793680
H        2.3327286630         2.3305937300         0.2966755800
H        2.2314299500         1.4280973560         1.8025476480

4.048_NH-N__Nmethylacetamide--dimethyldiazene_1.wfx

