%nprocs=4
%mem=2GB
#p hf aug-cc-pvdz output=wfx scf=(conver=6) int=(grid=ultrafine)

title

0 1
  N    1.427339082  -0.599460933  -0.391210405
  H    0.524716799  -0.814135861   0.022375840
  H    2.004866126  -1.425237666  -0.309450334
  C    2.047308300   0.531660202   0.293967970
  H    3.009553628   0.759268640  -0.165146751
  H    2.214250713   0.389080652   1.369340867
  H    1.417609392   1.413212598   0.173110974
  N   -1.883015380  -0.583965012   0.350352606
  H   -2.223112010  -1.279956315  -0.300095239
  H   -2.455606538  -0.652143954   1.180929721
  C   -1.965262710   0.756723625  -0.237005769
  H   -1.617633412   1.486987418   0.492294528
  H   -2.968374878   1.052343823  -0.561548331
  H   -1.296054590   0.808190870  -1.094094036

4.040_NH-N__methylamine--methylamine_110.wfx

