%nprocs=4
%mem=2GB
#p hf aug-cc-pvdz output=wfx scf=(conver=6) int=(grid=ultrafine)

title

0 1
  N    1.427339082  -0.599460933  -0.391210405
  H    0.524716799  -0.814135861   0.022375840
  H    2.004866126  -1.425237666  -0.309450334
  C    2.047308300   0.531660202   0.293967970
  H    3.009553628   0.759268640  -0.165146751
  H    2.214250713   0.389080652   1.369340867
  H    1.417609392   1.413212598   0.173110974
  N   -1.773573008  -0.594427324   0.335444571
  H   -2.113669639  -1.290418627  -0.315003274
  H   -2.346164166  -0.662606266   1.166021686
  C   -1.855820339   0.746261313  -0.251913804
  H   -1.508191040   1.476525106   0.477386493
  H   -2.858932507   1.041881511  -0.576456366
  H   -1.186612218   0.797728558  -1.109002071

4.040_NH-N__methylamine--methylamine_105.wfx

