%nprocs=4
%mem=2GB
#p hf aug-cc-pvdz output=wfx scf=(conver=6) int=(grid=ultrafine)

title

0 1
C        1.2704464500        -1.8254739980        -0.0000044490
C        1.9563409540        -0.4734111050        -0.0000064240
H        1.5963945250        -2.3808561910        -0.8778264730
H        0.1848270440        -1.7550805810         0.0000036040
H        1.5964081500        -2.3808725070         0.8778024320
N        1.1333124590         0.6001189140         0.0000152160
O        3.1740482860        -0.3685865490         0.0000038410
C        1.6606507920         1.9485503930        -0.0000092110
H        0.1348935220         0.4655378710         0.0000144130
H        0.8283077180         2.6476052620        -0.0000281340
H        2.2790491600         2.1281920140        -0.8794658110
H        2.2790463360         2.1282333250         0.8794407760

4.044_NH-N__Nmethylacetamide--acetonitrile_1.wfx

