%nprocs=4
%mem=2GB
#p hf aug-cc-pvdz output=wfx scf=(conver=6) int=(grid=ultrafine)

title

0 1
C       -3.4616043960        -1.2766406260         0.0000000000
H       -4.0854057420        -1.4366063730        -0.8776827190
H       -4.0854057420        -1.4366063730         0.8776827190
C       -2.9820231600         0.1622735900         0.0000000000
H       -2.6479737050        -1.9996493890         0.0000000000
O       -3.7637881400         1.1004667440         0.0000000000
N       -1.6390180610         0.3305608100         0.0000000000
H       -1.0426404360        -0.4814486540         0.0000000000
C       -1.0442740730         1.6529457020         0.0000000000
H       -1.3533179420         2.2174363340        -0.8794309040
H        0.0362815920         1.5512617800         0.0000000000
H       -1.3533179420         2.2174363340         0.8794309040

4.046_NH-N__Nmethylacetamide--aniline_1.wfx

