%nprocs=4
%mem=2GB
#p hf aug-cc-pvdz output=wfx scf=(conver=6) int=(grid=ultrafine)

title

0 1
  C    1.270446450  -1.825473998  -0.000004449
  H    0.184827044  -1.755080581   0.000003604
  H    1.596408150  -2.380872507   0.877802432
  H    1.596394525  -2.380856191  -0.877826473
  C    1.956340954  -0.473411105  -0.000006424
  O    3.174048286  -0.368586549   0.000003841
  N    1.133312459   0.600118914   0.000015216
  H    0.134893522   0.465537871   0.000014413
  C    1.660650792   1.948550393  -0.000009211
  H    2.279049160   2.128192014  -0.879465811
  H    0.828307718   2.647605262  -0.000028134
  H    2.279046336   2.128233325   0.879440776
  H   -4.851480103  -1.263612326   0.000028036
  H   -5.094918311   0.250655897  -0.885709367
  H   -5.094930969   0.250708998   0.885668488
  C   -4.645827696  -0.194803386  -0.000003984
  C   -3.211678564   0.035365360   0.000000485
  N   -2.079077987   0.216803588   0.000004405

4.044_NH-N__Nmethylacetamide--acetonitrile_105.wfx

