%nprocs=4
%mem=2GB
#p hf aug-cc-pvdz output=wfx scf=(conver=6) int=(grid=ultrafine)

title

0 1
N       -3.0660512010         0.2406466610        -0.0000013100
H       -3.6524910090        -0.5848363070        -0.0000032470
H       -3.3190207480         0.7854674000        -0.8152161780
H       -3.3190255380         0.7854673390         0.8152121380

4.045_NH-N__Nmethylacetamide--ammonia_2.wfx

