%nprocs=4
%mem=2GB
#p hf aug-cc-pvdz output=wfx scf=(conver=6) int=(grid=ultrafine)

title

0 1
  C    0.936148994   1.803524151   0.000000000
  H    1.247586894   2.366974188   0.877790110
  H    1.247586894   2.366974188  -0.877790110
  H   -0.147317299   1.708883430   0.000000000
  C    1.652223100   0.466504076   0.000000000
  O    2.872648699   0.395551997   0.000000000
  N    0.855329160  -0.625080597   0.000000000
  H   -0.156992093  -0.523366400   0.000000000
  C    1.423170645  -1.956683386   0.000000000
  H    2.046676181  -2.120112683   0.879135935
  H    2.046676181  -2.120112683  -0.879135935
  H    0.611997806  -2.681251498   0.000000000
  H   -2.415437219   1.216608188   1.275250578
  H   -3.935812985   0.315622987   1.265804280
  H   -2.505579814  -0.342065417   2.088248986
  H   -2.682998168  -1.403915354   0.000000000
  H   -2.505579814  -0.342065417  -2.088248986
  H   -2.415437219   1.216608188  -1.275250578
  H   -3.935812985   0.315622987  -1.265804280
  C   -2.843978722   0.216106778   1.217442241
  N   -2.377323302  -0.439746521   0.000000000
  C   -2.843978722   0.216106778  -1.217442241

4.047_NH-N__Nmethylacetamide--dimethylamine_110.wfx

