%nprocs=4
%mem=2GB
#p hf aug-cc-pvdz output=wfx scf=(conver=6) int=(grid=ultrafine)

title

0 1
  C   -1.511364416  -1.810199427  -0.000000000
  H   -1.908644981  -2.316764742   0.877790829
  H   -1.908644981  -2.316764742  -0.877790829
  H   -0.426625894  -1.889087007  -0.000000000
  C   -2.005161935  -0.376175625  -0.000000000
  O   -3.198253008  -0.110625175  -0.000000000
  N   -1.043627683   0.574173582  -0.000000000
  H   -0.061324777   0.307544901  -0.000000000
  C   -1.392743612   1.979560477   0.000000000
  H   -1.982902730   2.239247749  -0.878983992
  H   -0.477890680   2.566914617   0.000000000
  H   -1.982902730   2.239247749   0.878983992
  H    3.848698413  -1.021885768  -1.290790701
  H    2.425110507  -0.318030190  -2.083218779
  H    2.277121095  -1.838400109  -1.200108665
  H    2.277121095  -1.838400109   1.200108665
  H    3.848698413  -1.021885768   1.290790701
  H    2.425110507  -0.318030190   2.083218779
  H    4.091527584   1.178006523   0.000000000
  H    2.664645153   1.751044995   0.883484819
  C    2.763231976  -0.864267437  -1.204157517
  N    2.405022199  -0.128295080   0.000000000
  C    2.763231976  -0.864267437   1.204157517
  C    2.991577141   1.204752705   0.000000000
  H    2.664645153   1.751044995  -0.883484819

4.053_NH-N__Nmethylacetamide--trimethylamine_125.wfx

