%nprocs=4
%mem=2GB
#p hf aug-cc-pvdz output=wfx scf=(conver=6) int=(grid=ultrafine)

title

0 1
H       -3.9008553210        -0.6378491810        -0.9970887010
C       -3.7135986900        -0.3963532800         0.0504394060
H       -4.1842480410        -1.1562826090         0.6680089440
H       -4.2014449890         0.5597925900         0.2455787860
C       -2.2313993050        -0.3017276980         0.3162177620
C       -1.6631744620        -1.2454850070         1.3344362550
N       -1.4553362410         0.5169441100        -0.2688002900
H       -1.8499985840        -2.2789470660         1.0348520730
H       -0.5948922330        -1.0951946070         1.4558755720
H       -2.1593463300        -1.1049142330         2.2969518790
C       -1.9912725940         1.4333312240        -1.2621444010
H       -2.4681050000         0.9045534440        -2.0918374010
H       -2.7343567590         2.1098746380        -0.8313844710
H       -1.1802271440         2.0341480320        -1.6655275820

4.051_NH-N__Nmethylacetamide--Nmethyl2propanimine_2.wfx

