%nprocs=4
%mem=2GB
#p hf aug-cc-pvdz output=wfx scf=(conver=6) int=(grid=ultrafine)

title

0 1
  C    2.563534431  -0.347841965   0.000000000
  H    1.599727813  -0.807111630   0.000000000
  C    3.633144065   0.189419868   0.000000000
  H    4.585278903   0.657851364   0.000000000
  H   -2.850220862  -1.055009071   0.000000000
  H   -1.176861210   1.897496805  -0.877148164
  H    0.294675165   1.409780719   0.000000000
  H   -1.176861210   1.897496805   0.877148164
  O   -0.572088408  -1.024055875   0.000000000
  C   -1.267656643  -0.039600797   0.000000000
  O   -2.616222796  -0.116391086   0.000000000
  C   -0.788946894   1.381484149   0.000000000

5.003_CH-O__ethyne--aceticacid_100.wfx

