%nprocs=4
%mem=2GB
#p hf aug-cc-pvdz output=wfx scf=(conver=6) int=(grid=ultrafine)

title

0 1
  C    2.563534431  -0.347841965   0.000000000
  H    1.599727813  -0.807111630   0.000000000
  C    3.633144065   0.189419868   0.000000000
  H    4.585278903   0.657851364   0.000000000
  H   -2.633039240  -1.033314646   0.000000000
  H   -0.959679588   1.919191230  -0.877148164
  H    0.511856787   1.431475144   0.000000000
  H   -0.959679588   1.919191230   0.877148164
  O   -0.354906786  -1.002361450   0.000000000
  C   -1.050475021  -0.017906372   0.000000000
  O   -2.399041174  -0.094696662   0.000000000
  C   -0.571765272   1.403178574   0.000000000

5.003_CH-O__ethyne--aceticacid_090.wfx

