%nprocs=4
%mem=2GB
#p hf aug-cc-pvdz output=wfx scf=(conver=6) int=(grid=ultrafine)

title

0 1
  C    2.563534431  -0.347841965   0.000000000
  H    1.599727813  -0.807111630   0.000000000
  C    3.633144065   0.189419868   0.000000000
  H    4.585278903   0.657851364   0.000000000
  H   -3.393174917  -1.109245132   0.000000000
  H   -1.719815265   1.843260744  -0.877148164
  H   -0.248278890   1.355544658   0.000000000
  H   -1.719815265   1.843260744   0.877148164
  O   -1.115042463  -1.078291936   0.000000000
  C   -1.810610698  -0.093836858   0.000000000
  O   -3.159176851  -0.170627147   0.000000000
  C   -1.331900949   1.327248088   0.000000000

5.003_CH-O__ethyne--aceticacid_125.wfx

