%nprocs=4
%mem=2GB
#p hf aug-cc-pvdz output=wfx scf=(conver=6) int=(grid=ultrafine)

title

0 1
  C   -2.011548349   0.283130903  -0.000000131
  H   -1.057741761   0.762468607  -0.000000367
  C   -3.070459929  -0.274876730   0.000000058
  H   -4.013236394  -0.761855986   0.000000226
  H    1.831858470  -1.775017907   0.875108383
  H    1.831858432  -1.775018220  -0.875108197
  H    0.318167650  -1.410499682   0.000000079
  H    2.876771460   0.356051378  -0.000000440
  C    1.397186812  -1.286638844   0.000000012
  C    1.786331426   0.159567631  -0.000000151
  O    1.012552342   1.083419385   0.000000109

5.001_CH-O__ethyne--acetaldehyde_095.wfx

