%nprocs=4
%mem=2GB
#p hf aug-cc-pvdz output=wfx scf=(conver=6) int=(grid=ultrafine)

title

0 1
  C    2.563534431  -0.347841965   0.000000000
  H    1.599727813  -0.807111630   0.000000000
  C    3.633144065   0.189419868   0.000000000
  H    4.585278903   0.657851364   0.000000000
  H   -2.958811673  -1.065856283   0.000000000
  H   -1.285452021   1.886649593  -0.877148164
  H    0.186084354   1.398933507   0.000000000
  H   -1.285452021   1.886649593   0.877148164
  O   -0.680679219  -1.034903087   0.000000000
  C   -1.376247454  -0.050448009   0.000000000
  O   -2.724813607  -0.127238298   0.000000000
  C   -0.897537705   1.370636937   0.000000000

5.003_CH-O__ethyne--aceticacid_105.wfx

