%nprocs=4
%mem=2GB
#p hf aug-cc-pvdz output=wfx scf=(conver=6) int=(grid=ultrafine)

title

0 1
  C    2.798088279  -0.519124347   0.000000000
  H    1.777330117  -0.831520315   0.000000000
  C    3.936739405  -0.150050545   0.000000000
  H    4.948675257   0.169119376   0.000000000
  H   -1.671252816   1.221412795   0.885285969
  H   -2.436871953   2.568949119   0.000000000
  H   -1.671252816   1.221412795  -0.885285969
  H   -5.460204148  -0.667040507  -0.877454038
  C   -3.524024569  -0.474987311   0.000000000
  O   -3.524921216   0.866955876   0.000000000
  C   -2.235492062   1.503621165   0.000000000
  C   -4.922792937  -1.023506361   0.000000000
  O   -2.517021235  -1.140145233   0.000000000
  H   -4.888378431  -2.107204747   0.000000000
  H   -5.460204148  -0.667040507   0.877454038

5.009_CH-O__ethyne--methylacetate_200.wfx

