%nprocs=4
%mem=2GB
#p hf aug-cc-pvdz output=wfx scf=(conver=6) int=(grid=ultrafine)

title

0 1
  C   -2.498540088   0.314138598   0.003107715
  H   -1.507984959   0.715844514   0.067477482
  C   -3.597164489  -0.156447883  -0.071492992
  H   -4.574158592  -0.565069501  -0.136620036
  H    2.943680320  -0.669634962  -0.194970716
  H    2.731085815   1.047368123  -0.156607220
  H    1.219881388  -2.174249323  -0.096986101
  H   -0.325768916  -1.525026874  -0.682230512
  H   -0.003425620  -1.577439389   1.039236360
  O    0.261416513   0.971289022   0.094541366
  C    0.990650531  -0.002417936   0.012424791
  N    2.335958117   0.123739990  -0.124910657
  C    0.456499041  -1.416646926   0.065690037

5.002_CH-O__ethyne--acetamide_085.wfx

