%nprocs=4
%mem=2GB
#p hf aug-cc-pvdz output=wfx scf=(conver=6) int=(grid=ultrafine)

title

0 1
C        3.2658925560        -0.5184865580         0.0000000000
H        2.2610275120        -0.8784996980         0.0000000000
C        4.3850722720        -0.0939432480         0.0000000000
H        5.3808503670         0.2725301870         0.0000000000

5.005_CH-O__ethyne--dimethylcarbonate_1.wfx

