%nprocs=4
%mem=2GB
#p hf aug-cc-pvdz output=wfx scf=(conver=6) int=(grid=ultrafine)

title

0 1
  C    2.798088279  -0.519124347   0.000000000
  H    1.777330117  -0.831520315   0.000000000
  C    3.936739405  -0.150050545   0.000000000
  H    4.948675257   0.169119376   0.000000000
  H    0.905357995   1.406587746   0.885285969
  H    0.139738858   2.754124070   0.000000000
  H    0.905357995   1.406587746  -0.885285969
  H   -2.883593337  -0.481865556  -0.877454038
  C   -0.947413758  -0.289812360   0.000000000
  O   -0.948310405   1.052130827   0.000000000
  C    0.341118749   1.688796116   0.000000000
  C   -2.346182126  -0.838331410   0.000000000
  O    0.059589576  -0.954970282   0.000000000
  H   -2.311767620  -1.922029796   0.000000000
  H   -2.883593337  -0.481865556   0.877454038

5.009_CH-O__ethyne--methylacetate_080.wfx

