%nprocs=4
%mem=2GB
#p hf aug-cc-pvdz output=wfx scf=(conver=6) int=(grid=ultrafine)

title

0 1
H        2.0129863370         1.7987484210         0.8781690410
C        1.1804327320         1.7599183470         0.1738575890
O        1.1666379470         0.5377417410        -0.5340099420
H        1.3065844030         2.5200984450        -0.5951078860
H        0.2376434070         1.9247387180         0.6982038170
O        0.9705687980        -0.4960789500         0.4810145040
C        1.3957472860        -1.6991153970        -0.1269105060
H        0.8075483960        -1.9168901410        -1.0200360290
H        2.4560246280        -1.6566832040        -0.3791186390
H        1.2209449820        -2.4669056780         0.6247863970

5.007_CH-O__ethyne--dimethylperoxide_2.wfx

