%nprocs=4
%mem=2GB
#p hf aug-cc-pvdz output=wfx scf=(conver=6) int=(grid=ultrafine)

title

0 1
  C   -2.011548349   0.283130903  -0.000000131
  H   -1.057741761   0.762468607  -0.000000367
  C   -3.070459929  -0.274876730   0.000000058
  H   -4.013236394  -0.761855986   0.000000226
  H    4.120078268  -1.420282837   0.875108909
  H    4.120078229  -1.420283150  -0.875107671
  H    2.606387448  -1.055764612   0.000000605
  H    5.164991257   0.710786448   0.000000086
  C    3.685406610  -0.931903774   0.000000538
  C    4.074551224   0.514302701   0.000000375
  O    3.300772139   1.438154455   0.000000635

5.001_CH-O__ethyne--acetaldehyde_200.wfx

