%nprocs=4
%mem=2GB
#p hf aug-cc-pvdz output=wfx scf=(conver=6) int=(grid=ultrafine)

title

0 1
H        1.9408213180        -1.7581257610         0.8751084080
C        1.5061496600        -1.2697466980         0.0000000370
H        1.9408212790        -1.7581260740        -0.8751081720
H        0.4271304980        -1.3936075360         0.0000001040
C        1.8952942740         0.1764597770        -0.0000001260
H        2.9857343070         0.3729435240        -0.0000004150
O        1.1215151890         1.1003115310         0.0000001340

5.001_CH-O__ethyne--acetaldehyde_2.wfx

