%nprocs=4
%mem=2GB
#p hf aug-cc-pvdz output=wfx scf=(conver=6) int=(grid=ultrafine)

title

0 1
  C    1.985749423   0.000000000   0.166495686
  H    0.952555545   0.000000000   0.440031524
  C    3.139871445   0.000000000  -0.150791985
  H    4.164122207   0.000000000  -0.428111631
  H   -3.356953238   2.022108279   0.391365589
  H   -3.256192005   1.229461515  -1.197106185
  H   -4.790968903   1.225955717  -0.295615796
  H   -3.356953238  -2.022108279   0.391365589
  H   -3.256192005  -1.229461515  -1.197106185
  H   -4.790968903  -1.225955717  -0.295615796
  C   -3.701613784   1.176345037  -0.197874220
  O   -3.304462411   0.000000000   0.478049444
  C   -3.701613784  -1.176345037  -0.197874220

5.006_CH-O__ethyne--dimethylether_200.wfx

