%nprocs=4
%mem=2GB
#p hf aug-cc-pvdz output=wfx scf=(conver=6) int=(grid=ultrafine)

title

0 1
  C    2.798088279  -0.519124347   0.000000000
  H    1.777330117  -0.831520315   0.000000000
  C    3.936739405  -0.150050545   0.000000000
  H    4.948675257   0.169119376   0.000000000
  H    0.690640428   1.391156500   0.885285969
  H   -0.074978709   2.738692824   0.000000000
  H    0.690640428   1.391156500  -0.885285969
  H   -3.098310904  -0.497296802  -0.877454038
  C   -1.162131325  -0.305243606   0.000000000
  O   -1.163027972   1.036699581   0.000000000
  C    0.126401182   1.673364870   0.000000000
  C   -2.560899693  -0.853762656   0.000000000
  O   -0.155127991  -0.970401528   0.000000000
  H   -2.526485187  -1.937461042   0.000000000
  H   -3.098310904  -0.497296802   0.877454038

5.009_CH-O__ethyne--methylacetate_090.wfx

