%nprocs=4
%mem=2GB
#p hf aug-cc-pvdz output=wfx scf=(conver=6) int=(grid=ultrafine)

title

0 1
  C   -2.011548349   0.283130903  -0.000000131
  H   -1.057741761   0.762468607  -0.000000367
  C   -3.070459929  -0.274876730   0.000000058
  H   -4.013236394  -0.761855986   0.000000226
  H    1.613932776  -1.808802200   0.875108333
  H    1.613932736  -1.808802513  -0.875108247
  H    0.100241956  -1.444283975   0.000000029
  H    2.658845764   0.322267085  -0.000000490
  C    1.179261118  -1.320423137  -0.000000038
  C    1.568405732   0.125783338  -0.000000201
  O    0.794626646   1.049635092   0.000000059

5.001_CH-O__ethyne--acetaldehyde_085.wfx

