%nprocs=4
%mem=2GB
#p hf aug-cc-pvdz output=wfx scf=(conver=6) int=(grid=ultrafine)

title

0 1
  C   -2.229109262  -0.149979090   0.098014379
  H   -1.188235068  -0.305187736   0.270778929
  C   -3.397176213   0.026862773  -0.092440131
  H   -4.432841078   0.183283933  -0.262308377
  H    1.581225564   1.836926664   0.836121926
  H    0.874823630   2.558276688  -0.637155001
  H   -0.194117366   1.962916961   0.656156702
  H    0.789184209  -2.428727435   0.582739282
  H    2.024263855  -1.618504961  -0.421165754
  H    0.375787623  -1.878711898  -1.062083144
  C    0.748671959   1.798096590   0.131810474
  O    0.734877174   0.575919984  -0.576057057
  O    0.538808025  -0.457900707   0.438967389
  C    0.963986513  -1.660937154  -0.168957621

5.007_CH-O__ethyne--dimethylperoxide_080.wfx

