%nprocs=4
%mem=2GB
#p hf aug-cc-pvdz output=wfx scf=(conver=6) int=(grid=ultrafine)

title

0 1
  C    2.563534431  -0.347841965   0.000000000
  H    1.599727813  -0.807111630   0.000000000
  C    3.633144065   0.189419868   0.000000000
  H    4.585278903   0.657851364   0.000000000
  H   -2.415857618  -1.011620222   0.000000000
  H   -0.742497966   1.940885654  -0.877148164
  H    0.729038409   1.453169568   0.000000000
  H   -0.742497966   1.940885654   0.877148164
  O   -0.137725164  -0.980667026   0.000000000
  C   -0.833293399   0.003788052   0.000000000
  O   -2.181859552  -0.073002237   0.000000000
  C   -0.354583650   1.424872998   0.000000000

5.003_CH-O__ethyne--aceticacid_080.wfx

