%nprocs=4
%mem=2GB
#p hf aug-cc-pvdz output=wfx scf=(conver=6) int=(grid=ultrafine)

title

0 1
C        2.7980882790        -0.5191243470         0.0000000000
H        1.7773301170        -0.8315203150         0.0000000000
C        3.9367394050        -0.1500505450         0.0000000000
H        4.9486752570         0.1691193760         0.0000000000

5.009_CH-O__ethyne--methylacetate_1.wfx

