%nprocs=4
%mem=2GB
#p hf aug-cc-pvdz output=wfx scf=(conver=6) int=(grid=ultrafine)

title

0 1
  C   -2.011548349   0.283130903  -0.000000131
  H   -1.057741761   0.762468607  -0.000000367
  C   -3.070459929  -0.274876730   0.000000058
  H   -4.013236394  -0.761855986   0.000000226
  H    3.030449793  -1.589204299   0.875108658
  H    3.030449754  -1.589204612  -0.875107922
  H    1.516758973  -1.224686074   0.000000354
  H    4.075362782   0.541864986  -0.000000164
  C    2.595778135  -1.100825236   0.000000288
  C    2.984922749   0.345381239   0.000000124
  O    2.211143664   1.269232993   0.000000384

5.001_CH-O__ethyne--acetaldehyde_150.wfx

