%nprocs=4
%mem=2GB
#p hf aug-cc-pvdz output=wfx scf=(conver=6) int=(grid=ultrafine)

title

0 1
O        1.4999986660         0.6381463900         0.0242544330
C        2.0364084140        -0.6814604020        -0.0055916600
H        2.1817284850         1.2656669750        -0.2230206580
H        2.4110349650        -0.9450861940        -0.9971149180
H        1.2220080190        -1.3557222540         0.2470788320
H        2.8356063600        -0.8091853910         0.7278650320

5.008_CH-O__ethyne--methanol_2.wfx

