%nprocs=4
%mem=2GB
#p hf aug-cc-pvdz output=wfx scf=(conver=6) int=(grid=ultrafine)

title

0 1
  C   -2.229109262  -0.149979090   0.098014379
  H   -1.188235068  -0.305187736   0.270778929
  C   -3.397176213   0.026862773  -0.092440131
  H   -4.432841078   0.183283933  -0.262308377
  H    3.092388270   1.703302814   0.983286828
  H    2.385986336   2.424652838  -0.489990098
  H    1.317045340   1.829293111   0.803321604
  H    2.300346915  -2.562351285   0.729904184
  H    3.535426561  -1.752128811  -0.274000852
  H    1.886950329  -2.012335748  -0.914918242
  C    2.259834665   1.664472740   0.278975376
  O    2.246039880   0.442296134  -0.428892154
  O    2.049970731  -0.591524557   0.586132292
  C    2.475149219  -1.794561004  -0.021792718

5.007_CH-O__ethyne--dimethylperoxide_150.wfx

