%nprocs=4
%mem=2GB
#p hf aug-cc-pvdz output=wfx scf=(conver=6) int=(grid=ultrafine)

title

0 1
  C    2.798088279  -0.519124347   0.000000000
  H    1.777330117  -0.831520315   0.000000000
  C    3.936739405  -0.150050545   0.000000000
  H    4.948675257   0.169119376   0.000000000
  H    0.368564076   1.368009631   0.885285969
  H   -0.397055061   2.715545955   0.000000000
  H    0.368564076   1.368009631  -0.885285969
  H   -3.420387256  -0.520443671  -0.877454038
  C   -1.484207677  -0.328390475   0.000000000
  O   -1.485104324   1.013552712   0.000000000
  C   -0.195675170   1.650218001   0.000000000
  C   -2.882976045  -0.876909525   0.000000000
  O   -0.477204343  -0.993548397   0.000000000
  H   -2.848561539  -1.960607911   0.000000000
  H   -3.420387256  -0.520443671   0.877454038

5.009_CH-O__ethyne--methylacetate_105.wfx

