%nprocs=4
%mem=2GB
#p hf aug-cc-pvdz output=wfx scf=(conver=6) int=(grid=ultrafine)

title

0 1
  C   -2.229109262  -0.149979090   0.098014379
  H   -1.188235068  -0.305187736   0.270778929
  C   -3.397176213   0.026862773  -0.092440131
  H   -4.432841078   0.183283933  -0.262308377
  H    1.689165757   1.827382103   0.846633705
  H    0.982763823   2.548732127  -0.626643222
  H   -0.086177173   1.953372400   0.666668481
  H    0.897124402  -2.438271996   0.593251061
  H    2.132204048  -1.628049522  -0.410653975
  H    0.483727816  -1.888256459  -1.051571365
  C    0.856612152   1.788552029   0.142322253
  O    0.842817367   0.566375423  -0.565545278
  O    0.646748218  -0.467445268   0.449479168
  C    1.071926706  -1.670481715  -0.158445842

5.007_CH-O__ethyne--dimethylperoxide_085.wfx

