%nprocs=4
%mem=2GB
#p hf aug-cc-pvdz output=wfx scf=(conver=6) int=(grid=ultrafine)

title

0 1
H       -1.2284442600         2.0221082790         0.3723566290
C       -1.5731048060         1.1763450370        -0.2168831800
H       -1.1276830270         1.2294615150        -1.2161151450
H       -2.6624599250         1.2259557170        -0.3146247560
O       -1.1759534330         0.0000000000         0.4590404840
C       -1.5731048060        -1.1763450370        -0.2168831800
H       -1.1276830270        -1.2294615150        -1.2161151450
H       -2.6624599250        -1.2259557170        -0.3146247560
H       -1.2284442600        -2.0221082790         0.3723566290

5.006_CH-O__ethyne--dimethylether_2.wfx

