%nprocs=4
%mem=2GB
#p hf aug-cc-pvdz output=wfx scf=(conver=6) int=(grid=ultrafine)

title

0 1
  C    2.563534431  -0.347841965   0.000000000
  H    1.599727813  -0.807111630   0.000000000
  C    3.633144065   0.189419868   0.000000000
  H    4.585278903   0.657851364   0.000000000
  H   -3.067402484  -1.076703496   0.000000000
  H   -1.394042832   1.875802380  -0.877148164
  H    0.077493543   1.388086294   0.000000000
  H   -1.394042832   1.875802380   0.877148164
  O   -0.789270030  -1.045750300   0.000000000
  C   -1.484838265  -0.061295222   0.000000000
  O   -2.833404418  -0.138085510   0.000000000
  C   -1.006128516   1.359789724   0.000000000

5.003_CH-O__ethyne--aceticacid_110.wfx

