%nprocs=4
%mem=2GB
#p hf aug-cc-pvdz output=wfx scf=(conver=6) int=(grid=ultrafine)

title

0 1
  C   -1.632836033   0.195414211  -0.006233081
  H   -0.624803912   0.547640871  -0.013199587
  C   -2.759699298  -0.208009732   0.000603703
  H   -3.759789351  -0.562414637   0.007102688
  O    1.075038150   0.620045286   0.016763629
  H    1.756767969   1.247565871  -0.230511462
  C    1.611447898  -0.699561506  -0.013082464
  H    0.797047503  -1.373823358   0.239588028
  H    1.986074449  -0.963187298  -1.004605722
  H    2.410645844  -0.827286495   0.720374228

5.008_CH-O__ethyne--methanol_080.wfx

