%nprocs=4
%mem=2GB
#p hf aug-cc-pvdz output=wfx scf=(conver=6) int=(grid=ultrafine)

title

0 1
  C   -2.011548349   0.283130903  -0.000000131
  H   -1.057741761   0.762468607  -0.000000367
  C   -3.070459929  -0.274876730   0.000000058
  H   -4.013236394  -0.761855986   0.000000226
  H    2.158747013  -1.724341469   0.875108458
  H    2.158746974  -1.724341782  -0.875108122
  H    0.645056193  -1.359823244   0.000000154
  H    3.203660002   0.406727816  -0.000000365
  C    1.724075355  -1.235962406   0.000000087
  C    2.113219969   0.210244069  -0.000000076
  O    1.339440884   1.134095823   0.000000184

5.001_CH-O__ethyne--acetaldehyde_110.wfx

