%nprocs=4
%mem=2GB
#p hf aug-cc-pvdz output=wfx scf=(conver=6) int=(grid=ultrafine)

title

0 1
C       -2.4329062530         0.4735826020         0.0041305640
H       -1.6462412220         1.1390019240        -0.2615521200
C       -3.2979396820        -0.2960634440         0.3052597800
H       -4.0750237140        -0.9674670810         0.5735620130

5.010_CH-O__ethyne--nitromethane_1.wfx

