%nprocs=4
%mem=2GB
#p hf aug-cc-pvdz output=wfx scf=(conver=6) int=(grid=ultrafine)

title

0 1
  C   -2.432906253   0.473582602   0.004130564
  H   -1.646241222   1.139001924  -0.261552120
  C   -3.297939682  -0.296063444   0.305259780
  H   -4.075023714  -0.967467081   0.573562013
  H   -0.852262303  -1.242603160  -0.097025145
  H    0.756537597  -2.049694426  -0.038199636
  H    0.184578102  -1.232944835  -1.535426516
  C    0.174880952  -1.236014859  -0.450245996
  N    0.786427570   0.052885670  -0.000427958
  O    0.262536180   1.079181480  -0.404619064
  O    1.754095894   0.000462468   0.732781495

5.010_CH-O__ethyne--nitromethane_080.wfx

