%nprocs=4
%mem=2GB
#p hf aug-cc-pvdz output=wfx scf=(conver=6) int=(grid=ultrafine)

title

0 1
  C   -2.126067766  -0.318374589   0.000000000
  H   -1.191120246  -0.827130057   0.000000000
  C   -3.166039308   0.272997379   0.000000000
  H   -4.092344523   0.790878621   0.000000000
  H    1.413096549   1.747659889   0.877436980
  H    1.413096549   1.747659889  -0.877436980
  H   -0.090743986   1.267137212   0.000000000
  C    0.997169401   1.250244181   0.000000000
  N    1.539068675  -0.122334473   0.000000000
  O    0.703749657  -0.984430276   0.000000000

5.011_CH-O__ethyne--nitrosomethane_080.wfx

