%nprocs=4
%mem=2GB
#p hf aug-cc-pvdz output=wfx scf=(conver=6) int=(grid=ultrafine)

title

0 1
C        1.4277625080        -1.7921575450        -0.5349728250
H        2.0919974700        -1.6941220610        -1.3916278630
H        0.4604835630        -2.1541357430        -0.8828433410
H        1.8327182850        -2.5262076020         0.1567071370
C        1.2081912550        -0.4912691340         0.2040702710
O        0.7194709170        -0.4588844140         1.3245731310
N        1.5689122700         0.6351080100        -0.4574548340
H        1.8470343490         0.5540572440        -1.4180529270
C        1.2811223630         1.9557169530         0.0717428250
H        0.2193091780         2.1941313800        -0.0045880500
H        1.8565358900         2.6922517880        -0.4829662640
H        1.5661404900         1.9944168020         1.1197503550

5.019_CH-O__nitrosomethane--Nmethylacetamide_2.wfx

