%nprocs=4
%mem=2GB
#p hf aug-cc-pvdz output=wfx scf=(conver=6) int=(grid=ultrafine)

title

0 1
C        3.4972633900         0.0050711020        -0.1646483720
H        2.6468667290        -0.6180058840        -0.0104247450
C        4.4470066830         0.7125269270        -0.3351721220
H        5.2901142190         1.3385971580        -0.4873622990

5.013_CH-O__ethyne--phenol_1.wfx

