%nprocs=4
%mem=2GB
#p hf aug-cc-pvdz output=wfx scf=(conver=6) int=(grid=ultrafine)

title

0 1
  H   -1.421966272  -1.093598490   1.263126162
  H   -2.872230360  -1.591722877   0.322529171
  H   -3.066977886  -0.608275472   1.800438995
  C   -2.427661039  -0.826684788   0.953955992
  O   -2.372566127   0.430843752   0.198365167
  C   -1.601016922   0.442302712  -0.820712099
  N   -0.922227560   0.505641228  -1.754031161
  C    1.881858803  -1.563004968  -0.907553781
  H    2.791792275  -1.311562371  -1.449358042
  H    1.990630972  -2.538431139  -0.442244529
  H    1.057626239  -1.605607466  -1.619658232
  C    1.528020834  -0.545829331   0.150456400
  O    0.822456433  -0.826760276   1.112149730
  N    2.026201679   0.698718342  -0.040251432
  H    2.436318578   0.897350207  -0.935259259
  C    1.595064527   1.821725806   0.768677468
  H    1.525136985   1.505586239   1.805003827
  H    0.617838391   2.192752562   0.453077844
  H    2.323276579   2.624766884   0.687042563

5.016_CH-O__methylcyanate--Nmethylacetamide_105.wfx

