%nprocs=4
%mem=2GB
#p hf aug-cc-pvdz output=wfx scf=(conver=6) int=(grid=ultrafine)

title

0 1
  C   -2.126067766  -0.318374589   0.000000000
  H   -1.191120246  -0.827130057   0.000000000
  C   -3.166039308   0.272997379   0.000000000
  H   -4.092344523   0.790878621   0.000000000
  H    1.768384656   1.718166098   0.877436980
  H    1.768384656   1.718166098  -0.877436980
  H    0.264544121   1.237643421   0.000000000
  C    1.352457508   1.220750390   0.000000000
  N    1.894356782  -0.151828264   0.000000000
  O    1.059037764  -1.013924067   0.000000000

5.011_CH-O__ethyne--nitrosomethane_095.wfx

