%nprocs=4
%mem=2GB
#p hf aug-cc-pvdz output=wfx scf=(conver=6) int=(grid=ultrafine)

title

0 1
C        1.7749815310        -1.5757115500        -0.9003644270
H        1.8837537000        -2.5511377210        -0.4350551750
H        2.6849150030        -1.3242689530        -1.4421686880
H        0.9507489670        -1.6183140480        -1.6124688780
C        1.4211435620        -0.5585359130         0.1576457540
O        0.7155791610        -0.8394668580         1.1193390840
N        1.9193244070         0.6860117600        -0.0330620780
H        2.3294413060         0.8846436250        -0.9280699050
C        1.4881872550         1.8090192240         0.7758668220
H        1.4182597130         1.4928796570         1.8121931810
H        0.5109611190         2.1800459800         0.4602671980
H        2.2163993070         2.6120603020         0.6942319170

5.016_CH-O__methylcyanate--Nmethylacetamide_2.wfx

