%nprocs=4
%mem=2GB
#p hf aug-cc-pvdz output=wfx scf=(conver=6) int=(grid=ultrafine)

title

0 1
C       -0.9981024190         0.0000000000         0.0273894860
H        0.0684685610         0.0000000000         0.0680574510
C       -2.1939350420         0.0000000000        -0.0217441740
H       -3.2541392400         0.0000000000        -0.0636009060

5.014_CH-O__ethyne--water_1.wfx

