%nprocs=4
%mem=2GB
#p hf aug-cc-pvdz output=wfx scf=(conver=6) int=(grid=ultrafine)

title

0 1
  C   -2.126067766  -0.318374589   0.000000000
  H   -1.191120246  -0.827130057   0.000000000
  C   -3.166039308   0.272997379   0.000000000
  H   -4.092344523   0.790878621   0.000000000
  H    3.071107714   1.610022197   0.877436980
  H    3.071107714   1.610022197  -0.877436980
  H    1.567267180   1.129499520   0.000000000
  C    2.655180566   1.112606489   0.000000000
  N    3.197079840  -0.259972165   0.000000000
  O    2.361760822  -1.122067968   0.000000000

5.011_CH-O__ethyne--nitrosomethane_150.wfx

