%nprocs=4
%mem=2GB
#p hf aug-cc-pvdz output=wfx scf=(conver=6) int=(grid=ultrafine)

title

0 1
  C   -2.126067766  -0.318374589   0.000000000
  H   -1.191120246  -0.827130057   0.000000000
  C   -3.166039308   0.272997379   0.000000000
  H   -4.092344523   0.790878621   0.000000000
  H    4.255401404   1.511709560   0.877436980
  H    4.255401404   1.511709560  -0.877436980
  H    2.751560869   1.031186883   0.000000000
  C    3.839474256   1.014293852   0.000000000
  N    4.381373530  -0.358284802   0.000000000
  O    3.546054512  -1.220380605   0.000000000

5.011_CH-O__ethyne--nitrosomethane_200.wfx

