%nprocs=4
%mem=2GB
#p hf aug-cc-pvdz output=wfx scf=(conver=6) int=(grid=ultrafine)

title

0 1
  C   -2.126067766  -0.318374589   0.000000000
  H   -1.191120246  -0.827130057   0.000000000
  C   -3.166039308   0.272997379   0.000000000
  H   -4.092344523   0.790878621   0.000000000
  H    2.005243394   1.698503570   0.877436980
  H    2.005243394   1.698503570  -0.877436980
  H    0.501402859   1.217980893   0.000000000
  C    1.589316246   1.201087862   0.000000000
  N    2.131215520  -0.171490792   0.000000000
  O    1.295896502  -1.033586595   0.000000000

5.011_CH-O__ethyne--nitrosomethane_105.wfx

