%nprocs=4
%mem=2GB
#p hf aug-cc-pvdz output=wfx scf=(conver=6) int=(grid=ultrafine)

title

0 1
  C   -0.998102419   0.000000000   0.027389486
  H    0.068468561   0.000000000   0.068057451
  C   -2.193935042   0.000000000  -0.021744174
  H   -3.254139240   0.000000000  -0.063600906
  O    2.800875787   0.000000000   0.026966600
  H    3.265201010  -0.764245022  -0.323331810
  H    3.265201010   0.764245022  -0.323331810

5.014_CH-O__ethyne--water_125.wfx

