%nprocs=4
%mem=2GB
#p hf aug-cc-pvdz output=wfx scf=(conver=6) int=(grid=ultrafine)

title

0 1
C        0.0934286490         1.6181116850        -0.0323806330
H       -0.4685390600         1.7198666480        -0.9588910980
H       -0.6260447330         1.6322134280         0.7838361850
C        0.8002741260         0.2807242410        -0.0371014160
H        0.7685742160         2.4653579830         0.0703337690
O        0.1831210010        -0.7713746970        -0.1235222020
N        2.1530642940         0.3278769070         0.0581944840
C        2.9881334390        -0.8573027640         0.0658423830
H        2.5920539460         1.2276892410         0.1251723910
H        2.3361756080        -1.7220184160        -0.0038248340
H        3.6727389460        -0.8595605580        -0.7824069170
H        3.5666155700        -0.9214973260         0.9873701730

5.012_CH-O__ethyne--Nmethylacetamide_2.wfx

