%nprocs=4
%mem=2GB
#p hf aug-cc-pvdz output=wfx scf=(conver=6) int=(grid=ultrafine)

title

0 1
O        2.2543943420         0.0000000000         0.0351847700
H        2.7187195650        -0.7642450220        -0.3151136400
H        2.7187195650         0.7642450220        -0.3151136400

5.014_CH-O__ethyne--water_2.wfx

