%nprocs=4
%mem=2GB
#p hf aug-cc-pvdz output=wfx scf=(conver=6) int=(grid=ultrafine)

title

0 1
H       -1.6252518370        -0.1661408280         1.6425428800
C       -2.4240566030        -0.2238047070         0.9001924380
H       -3.2955904510         0.3043398570         1.2856772320
H       -2.6396439520        -1.2596062200         0.6432478970
N       -1.9293119760         0.5313221210        -0.2600807850
O       -1.6705246210        -0.1444075420        -1.2196983520

5.019_CH-O__nitrosomethane--Nmethylacetamide_1.wfx

