%nprocs=4
%mem=2GB
#p hf aug-cc-pvdz output=wfx scf=(conver=6) int=(grid=ultrafine)

title

0 1
  C    3.497263390   0.005071102  -0.164648372
  H    2.646866729  -0.618005884  -0.010424745
  C    4.447006683   0.712526927  -0.335172122
  H    5.290114219   1.338597158  -0.487362299
  H    0.538399681   0.919016682   0.854224850
  H   -3.527943916   1.702154680  -0.275897710
  H   -1.330265225   2.508612520   0.532673032
  H   -1.975411132  -2.289097720  -0.442077874
  H    0.208110698  -2.513952354   0.204761942
  H   -3.840098026  -0.706381762  -0.760794903
  C   -2.712132703   1.008696206  -0.135314354
  C   -1.477351190   1.459511770   0.318902298
  C   -0.423596228   0.576543960   0.503237456
  C   -0.609260103  -0.773495824   0.227270958
  C   -1.838460895  -1.236429942  -0.228302811
  C   -2.886243110  -0.341787122  -0.407010724
  O    0.458809691  -1.611938192   0.420745695

5.013_CH-O__ethyne--phenol_110.wfx

