%nprocs=4
%mem=2GB
#p hf aug-cc-pvdz output=wfx scf=(conver=6) int=(grid=ultrafine)

title

0 1
  C    2.632381871  -0.000000257   0.000000000
  H    1.565358322  -0.000000754   0.000000000
  C    3.829307843   0.000000417   0.000000000
  H    4.890207532   0.000001030   0.000000000
  H   -6.006337628  -0.511142249  -0.885325248
  H   -6.006337628  -0.511142249   0.885325248
  H   -6.006337438   1.022286106   0.000000000
  C   -5.632688288   0.000000520   0.000000000
  C   -4.179548976   0.000000175   0.000000000
  N   -3.032127742  -0.000000506   0.000000000

6.001_CH-N__ethyne--acetonitrile_200.wfx

