%nprocs=4
%mem=2GB
#p hf aug-cc-pvdz output=wfx scf=(conver=6) int=(grid=ultrafine)

title

0 1
  C    2.551418700  -0.510074825   0.000000000
  H    1.509617183  -0.734155788   0.000000000
  C    3.717005672  -0.240030014   0.000000000
  H    4.752501692  -0.007763900   0.000000000
  H   -0.909278093   1.991172062  -0.890504640
  H   -0.909278093   1.991172062   0.890504640
  H    0.596808895   1.710665081   0.000000000
  C   -0.473505647   1.536286607   0.000000000
  N   -0.661675305   0.075677277   0.000000000
  N   -1.822343825  -0.317524180   0.000000000
  N   -2.847801297  -0.788585198   0.000000000

6.007_CH-N__ethyne--methylazide_100.wfx

