%nprocs=4
%mem=2GB
#p hf aug-cc-pvdz output=wfx scf=(conver=6) int=(grid=ultrafine)

title

0 1
  C    2.803242417  -0.002906470   0.000000000
  H    1.738294652   0.144141849  -0.000000000
  C    3.989117792  -0.172749556   0.000000000
  H    5.039614117  -0.321748470   0.000000000
  H   -2.933677004   0.496187263   0.875968190
  H   -3.265333396  -1.002118692   0.000000000
  H   -2.933677004   0.496187263  -0.875968190
  H   -1.213981117  -2.358897012  -0.876070530
  H   -1.223469015   2.153471712   0.882197754
  H   -1.223469015   2.153471712  -0.882197754
  H    0.269419649   2.484314273  -0.000000000
  H   -1.213981117  -2.358897012   0.876070530
  H    0.281061902  -1.968172506   0.000000000
  C   -1.186558177  -0.405918103   0.000000000
  N   -0.273101947   0.475606905  -0.000000000
  C   -0.636247592   1.882631554  -0.000000000
  C   -0.798809464  -1.855778001   0.000000000
  C   -2.664872789  -0.096343438   0.000000000

6.008_CH-N__ethyne--Nmethyl2propanimine_095.wfx

