%nprocs=4
%mem=2GB
#p hf aug-cc-pvdz output=wfx scf=(conver=6) int=(grid=ultrafine)

title

0 1
  C   -1.597952042   0.186011894   0.000000000
  H   -0.571514692   0.500643864   0.000000000
  C   -2.740858305  -0.171969589   0.000000000
  H   -3.754198053  -0.486617119   0.000000000
  N    1.179091570   0.652203715   0.000000000
  H    1.560109571   1.118612954  -0.812477095
  H    1.560109571   1.118612954   0.812477095
  C    1.530874313  -0.770485325   0.000000000
  H    1.094273389  -1.246545388   0.876689260
  H    2.606289749  -0.975091014   0.000000000
  H    1.094273389  -1.246545388  -0.876689260

6.006_CH-N__ethyne--methylamine_080.wfx

