%nprocs=4
%mem=2GB
#p hf aug-cc-pvdz output=wfx scf=(conver=6) int=(grid=ultrafine)

title

0 1
  C    2.632381871  -0.000000257   0.000000000
  H    1.565358322  -0.000000754   0.000000000
  C    3.829307843   0.000000417   0.000000000
  H    4.890207532   0.000001030   0.000000000
  H   -3.937468899  -0.511142361  -0.885325248
  H   -3.937468899  -0.511142361   0.885325248
  H   -3.937468709   1.022285994   0.000000000
  C   -3.563819559   0.000000408   0.000000000
  C   -2.110680247   0.000000063   0.000000000
  N   -0.963259013  -0.000000618   0.000000000

6.001_CH-N__ethyne--acetonitrile_110.wfx

