%nprocs=4
%mem=2GB
#p hf aug-cc-pvdz output=wfx scf=(conver=6) int=(grid=ultrafine)

title

0 1
  C   -0.980342327  -0.000000374   0.000000000
  H    0.091450754  -0.000000299   0.000000000
  C   -2.177833273   0.000000216   0.000000000
  H   -3.238844962   0.000000910   0.000000000
  N    2.121720428   0.000000139   0.000000000
  H    2.494873444  -0.470564362  -0.815040377
  H    2.494873444  -0.470564362   0.815040377
  H    2.494875320   0.941127223   0.000000000

6.002_CH-N__ethyne--ammonia_090.wfx

