%nprocs=4
%mem=2GB
#p hf aug-cc-pvdz output=wfx scf=(conver=6) int=(grid=ultrafine)

title

0 1
  C    2.803242417  -0.002906470   0.000000000
  H    1.738294652   0.144141849  -0.000000000
  C    3.989117792  -0.172749556   0.000000000
  H    5.039614117  -0.321748470   0.000000000
  H   -3.039539983   0.513632792   0.875968190
  H   -3.371196375  -0.984673163   0.000000000
  H   -3.039539983   0.513632792  -0.875968190
  H   -1.319844096  -2.341451483  -0.876070530
  H   -1.329331994   2.170917241   0.882197754
  H   -1.329331994   2.170917241  -0.882197754
  H    0.163556670   2.501759802   0.000000000
  H   -1.319844096  -2.341451483   0.876070530
  H    0.175198923  -1.950726977   0.000000000
  C   -1.292421156  -0.388472574   0.000000000
  N   -0.378964926   0.493052434   0.000000000
  C   -0.742110571   1.900077083   0.000000000
  C   -0.904672443  -1.838332472   0.000000000
  C   -2.770735768  -0.078897909   0.000000000

6.008_CH-N__ethyne--Nmethyl2propanimine_100.wfx

