%nprocs=4
%mem=2GB
#p hf aug-cc-pvdz output=wfx scf=(conver=6) int=(grid=ultrafine)

title

0 1
  C   -1.597952042   0.186011894   0.000000000
  H   -0.571514692   0.500643864   0.000000000
  C   -2.740858305  -0.171969589   0.000000000
  H   -3.754198053  -0.486617119   0.000000000
  N    2.163807593   0.737456132   0.000000000
  H    2.544825594   1.203865370  -0.812477095
  H    2.544825594   1.203865370   0.812477095
  C    2.515590336  -0.685232908   0.000000000
  H    2.078989412  -1.161292972   0.876689260
  H    3.591005772  -0.889838598   0.000000000
  H    2.078989412  -1.161292972  -0.876689260

6.006_CH-N__ethyne--methylamine_125.wfx

