%nprocs=4
%mem=2GB
#p hf aug-cc-pvdz output=wfx scf=(conver=6) int=(grid=ultrafine)

title

0 1
  C   -1.597952042   0.186011894   0.000000000
  H   -0.571514692   0.500643864   0.000000000
  C   -2.740858305  -0.171969589   0.000000000
  H   -3.754198053  -0.486617119   0.000000000
  N    2.710872050   0.784818585   0.000000000
  H    3.091890051   1.251227824  -0.812477095
  H    3.091890051   1.251227824   0.812477095
  C    3.062654793  -0.637870455   0.000000000
  H    2.626053869  -1.113930518   0.876689260
  H    4.138070229  -0.842476144   0.000000000
  H    2.626053869  -1.113930518  -0.876689260

6.006_CH-N__ethyne--methylamine_150.wfx

