%nprocs=4
%mem=2GB
#p hf aug-cc-pvdz output=wfx scf=(conver=6) int=(grid=ultrafine)

title

0 1
  C    2.551418700  -0.510074825   0.000000000
  H    1.509617183  -0.734155788   0.000000000
  C    3.717005672  -0.240030014   0.000000000
  H    4.752501692  -0.007763900   0.000000000
  H   -3.080570581   2.801005127  -0.890504640
  H   -3.080570581   2.801005127   0.890504640
  H   -1.574483593   2.520498146   0.000000000
  C   -2.644798135   2.346119672   0.000000000
  N   -2.832967793   0.885510342   0.000000000
  N   -3.993636313   0.492308885   0.000000000
  N   -5.019093785   0.021247867   0.000000000

6.007_CH-N__ethyne--methylazide_200.wfx

