%nprocs=4
%mem=2GB
#p hf aug-cc-pvdz output=wfx scf=(conver=6) int=(grid=ultrafine)

title

0 1
H       -3.7075945960        -0.5111423730        -0.8853252480
C       -3.3339452560         0.0000003960         0.0000000000
H       -3.7075945960        -0.5111423730         0.8853252480
H       -3.7075944060         1.0222859820         0.0000000000
C       -1.8808059440         0.0000000510         0.0000000000
N       -0.7333847100        -0.0000006300         0.0000000000

6.001_CH-N__ethyne--acetonitrile_2.wfx

