%nprocs=4
%mem=2GB
#p hf aug-cc-pvdz output=wfx scf=(conver=6) int=(grid=ultrafine)

title

0 1
  C   -1.597952042   0.186011894   0.000000000
  H   -0.571514692   0.500643864   0.000000000
  C   -2.740858305  -0.171969589   0.000000000
  H   -3.754198053  -0.486617119   0.000000000
  N    1.288504462   0.661676206   0.000000000
  H    1.669522463   1.128085445  -0.812477095
  H    1.669522463   1.128085445   0.812477095
  C    1.640287205  -0.761012834   0.000000000
  H    1.203686281  -1.237072897   0.876689260
  H    2.715702641  -0.965618523   0.000000000
  H    1.203686281  -1.237072897  -0.876689260

6.006_CH-N__ethyne--methylamine_085.wfx

