%nprocs=4
%mem=2GB
#p hf aug-cc-pvdz output=wfx scf=(conver=6) int=(grid=ultrafine)

title

0 1
C        2.5514187000        -0.5100748250         0.0000000000
H        1.5096171830        -0.7341557880         0.0000000000
C        3.7170056720        -0.2400300140         0.0000000000
H        4.7525016920        -0.0077639000         0.0000000000

6.007_CH-N__ethyne--methylazide_1.wfx

