%nprocs=4
%mem=2GB
#p hf aug-cc-pvdz output=wfx scf=(conver=6) int=(grid=ultrafine)

title

0 1
  C   -0.980342327  -0.000000374   0.000000000
  H    0.091450754  -0.000000299   0.000000000
  C   -2.177833273   0.000000216   0.000000000
  H   -3.238844962   0.000000910   0.000000000
  N    2.911269745   0.000000310   0.000000000
  H    3.284422761  -0.470564191  -0.815040377
  H    3.284422761  -0.470564191   0.815040377
  H    3.284424637   0.941127394   0.000000000

6.002_CH-N__ethyne--ammonia_125.wfx

