%nprocs=4
%mem=2GB
#p hf aug-cc-pvdz output=wfx scf=(conver=6) int=(grid=ultrafine)

title

0 1
  C    2.551418700  -0.510074825   0.000000000
  H    1.509617183  -0.734155788   0.000000000
  C    3.717005672  -0.240030014   0.000000000
  H    4.752501692  -0.007763900   0.000000000
  H   -0.475019595   1.829205449  -0.890504640
  H   -0.475019595   1.829205449   0.890504640
  H    1.031067393   1.548698468   0.000000000
  C   -0.039247149   1.374319994   0.000000000
  N   -0.227416807  -0.086289336   0.000000000
  N   -1.388085327  -0.479490793   0.000000000
  N   -2.413542799  -0.950551811   0.000000000

6.007_CH-N__ethyne--methylazide_080.wfx

