%nprocs=4
%mem=2GB
#p hf aug-cc-pvdz output=wfx scf=(conver=6) int=(grid=ultrafine)

title

0 1
  C   -1.597952042   0.186011894   0.000000000
  H   -0.571514692   0.500643864   0.000000000
  C   -2.740858305  -0.171969589   0.000000000
  H   -3.754198053  -0.486617119   0.000000000
  N    1.616743136   0.690093678   0.000000000
  H    1.997761137   1.156502917  -0.812477095
  H    1.997761137   1.156502917   0.812477095
  C    1.968525879  -0.732595362   0.000000000
  H    1.531924955  -1.208655425   0.876689260
  H    3.043941315  -0.937201051   0.000000000
  H    1.531924955  -1.208655425  -0.876689260

6.006_CH-N__ethyne--methylamine_100.wfx

