%nprocs=4
%mem=2GB
#p hf aug-cc-pvdz output=wfx scf=(conver=6) int=(grid=ultrafine)

title

0 1
  C    2.551418700  -0.510074825   0.000000000
  H    1.509617183  -0.734155788   0.000000000
  C    3.717005672  -0.240030014   0.000000000
  H    4.752501692  -0.007763900   0.000000000
  H   -0.800713469   1.950680409  -0.890504640
  H   -0.800713469   1.950680409   0.890504640
  H    0.705373519   1.670173428   0.000000000
  C   -0.364941023   1.495794954   0.000000000
  N   -0.553110681   0.035185624   0.000000000
  N   -1.713779201  -0.358015833   0.000000000
  N   -2.739236673  -0.829076851   0.000000000

6.007_CH-N__ethyne--methylazide_095.wfx

