%nprocs=4
%mem=2GB
#p hf aug-cc-pvdz output=wfx scf=(conver=6) int=(grid=ultrafine)

title

0 1
  C    2.632381871  -0.000000257   0.000000000
  H    1.565358322  -0.000000754   0.000000000
  C    3.829307843   0.000000417   0.000000000
  H    4.890207532   0.000001030   0.000000000
  H   -3.362783141  -0.511142392  -0.885325248
  H   -3.362783141  -0.511142392   0.885325248
  H   -3.362782951   1.022285963   0.000000000
  C   -2.989133801   0.000000377   0.000000000
  C   -1.535994489   0.000000032   0.000000000
  N   -0.388573255  -0.000000649   0.000000000

6.001_CH-N__ethyne--acetonitrile_085.wfx

