%nprocs=4
%mem=2GB
#p hf aug-cc-pvdz output=wfx scf=(conver=6) int=(grid=ultrafine)

title

0 1
  C   -3.126305942  -0.323783158  -0.085035180
  H   -2.370166180   0.428512607  -0.028505261
  C   -3.977281178  -1.163085502  -0.146680162
  H   -4.729233540  -1.909617113  -0.202188267
  H    0.337754967   0.453101043   2.195991580
  H    2.975159642  -1.959328576  -0.165589961
  H    1.997242610  -1.353087478   2.029568047
  H    0.606987387   1.085328067  -2.029690338
  H   -0.697740423   2.334591595   1.082024923
  H    2.265294052  -0.722487761  -2.192556732
  H   -0.605522822   2.569235857  -0.561196716
  C    2.249415467  -1.163012930  -0.092703658
  C    1.699932067  -0.820748896   1.137000887
  C    0.766621890   0.200356282   1.235231020
  C    0.367692472   0.902632668   0.096454267
  C    0.917257087   0.554968673  -1.138943719
  C    1.849775804  -0.467795501  -1.227694359
  N   -0.624793005   1.888834856   0.181481041

6.003_CH-N__ethyne--aniline_100.wfx

