%nprocs=4
%mem=2GB
#p hf aug-cc-pvdz output=wfx scf=(conver=6) int=(grid=ultrafine)

title

0 1
N        2.3473059470         0.0000001880         0.0000000000
H        2.7204589630        -0.4705643130        -0.8150403770
H        2.7204589630        -0.4705643130         0.8150403770
H        2.7204608390         0.9411272720         0.0000000000

6.002_CH-N__ethyne--ammonia_2.wfx

