%nprocs=4
%mem=2GB
#p hf aug-cc-pvdz output=wfx scf=(conver=6) int=(grid=ultrafine)

title

0 1
  C    2.632381871  -0.000000257   0.000000000
  H    1.565358322  -0.000000754   0.000000000
  C    3.829307843   0.000000417   0.000000000
  H    4.890207532   0.000001030   0.000000000
  H   -4.856966112  -0.511142311  -0.885325248
  H   -4.856966112  -0.511142311   0.885325248
  H   -4.856965922   1.022286044   0.000000000
  C   -4.483316772   0.000000458   0.000000000
  C   -3.030177460   0.000000113   0.000000000
  N   -1.882756226  -0.000000568   0.000000000

6.001_CH-N__ethyne--acetonitrile_150.wfx

