%nprocs=4
%mem=2GB
#p hf aug-cc-pvdz output=wfx scf=(conver=6) int=(grid=ultrafine)

title

0 1
  C    2.551418700  -0.510074825   0.000000000
  H    1.509617183  -0.734155788   0.000000000
  C    3.717005672  -0.240030014   0.000000000
  H    4.752501692  -0.007763900   0.000000000
  H   -1.126407342   2.072155368  -0.890504640
  H   -1.126407342   2.072155368   0.890504640
  H    0.379679646   1.791648388   0.000000000
  C   -0.690634896   1.617269914   0.000000000
  N   -0.878804554   0.156660584   0.000000000
  N   -2.039473074  -0.236540874   0.000000000
  N   -3.064930546  -0.707601892   0.000000000

6.007_CH-N__ethyne--methylazide_110.wfx

