%nprocs=4
%mem=2GB
#p hf aug-cc-pvdz output=wfx scf=(conver=6) int=(grid=ultrafine)

title

0 1
  C   -1.597952042   0.186011894   0.000000000
  H   -0.571514692   0.500643864   0.000000000
  C   -2.740858305  -0.171969589   0.000000000
  H   -3.754198053  -0.486617119   0.000000000
  N    1.397917353   0.671148697   0.000000000
  H    1.778935354   1.137557936  -0.812477095
  H    1.778935354   1.137557936   0.812477095
  C    1.749700096  -0.751540343   0.000000000
  H    1.313099172  -1.227600406   0.876689260
  H    2.825115532  -0.956146032   0.000000000
  H    1.313099172  -1.227600406  -0.876689260

6.006_CH-N__ethyne--methylamine_090.wfx

