%nprocs=4
%mem=2GB
#p hf aug-cc-pvdz output=wfx scf=(conver=6) int=(grid=ultrafine)

title

0 1
C       -0.9803423270        -0.0000003740         0.0000000000
H        0.0914507540        -0.0000002990         0.0000000000
C       -2.1778332730         0.0000002160         0.0000000000
H       -3.2388449620         0.0000009100         0.0000000000

6.002_CH-N__ethyne--ammonia_1.wfx

