%nprocs=4
%mem=2GB
#p hf aug-cc-pvdz output=wfx scf=(conver=6) int=(grid=ultrafine)

title

0 1
C       -1.5979520420         0.1860118940         0.0000000000
C       -2.7408583050        -0.1719695890         0.0000000000
H       -0.5715146920         0.5006438640         0.0000000000
H       -3.7541980530        -0.4866171190         0.0000000000

6.006_CH-N__ethyne--methylamine_1.wfx

