%nprocs=4
%mem=2GB
#p hf aug-cc-pvdz output=wfx scf=(conver=6) int=(grid=ultrafine)

title

0 1
  C   -1.597952042   0.186011894   0.000000000
  H   -0.571514692   0.500643864   0.000000000
  C   -2.740858305  -0.171969589   0.000000000
  H   -3.754198053  -0.486617119   0.000000000
  N    1.507330245   0.680621187   0.000000000
  H    1.888348246   1.147030426  -0.812477095
  H    1.888348246   1.147030426   0.812477095
  C    1.859112988  -0.742067853   0.000000000
  H    1.422512064  -1.218127916   0.876689260
  H    2.934528424  -0.946673542   0.000000000
  H    1.422512064  -1.218127916  -0.876689260

6.006_CH-N__ethyne--methylamine_095.wfx

