%nprocs=4
%mem=2GB
#p hf aug-cc-pvdz output=wfx scf=(conver=6) int=(grid=ultrafine)

title

0 1
  C    2.551418700  -0.510074825   0.000000000
  H    1.509617183  -0.734155788   0.000000000
  C    3.717005672  -0.240030014   0.000000000
  H    4.752501692  -0.007763900   0.000000000
  H   -1.994924337   2.396088594  -0.890504640
  H   -1.994924337   2.396088594   0.890504640
  H   -0.488837349   2.115581614   0.000000000
  C   -1.559151891   1.941203140   0.000000000
  N   -1.747321549   0.480593810   0.000000000
  N   -2.907990069   0.087392353   0.000000000
  N   -3.933447541  -0.383668666   0.000000000

6.007_CH-N__ethyne--methylazide_150.wfx

