%nprocs=4
%mem=2GB
#p hf aug-cc-pvdz output=wfx scf=(conver=6) int=(grid=ultrafine)

title

0 1
C        2.4493191840         0.0443712080         0.0000000000
H        1.3847683160        -0.0581368620         0.0000000000
C        3.6406946960         0.1613880520         0.0000000000
H        4.6967753740         0.2648080000         0.0000000000

6.005_CH-N__ethyne--dimethyldiazene_1.wfx

