%nprocs=4
%mem=2GB
#p hf aug-cc-pvdz output=wfx scf=(conver=6) int=(grid=ultrafine)

title

0 1
H       -3.0395399830         0.5136327920         0.8759681900
C       -2.7707357680        -0.0788979090         0.0000000000
H       -3.3711963750        -0.9846731630         0.0000000000
C       -1.2924211560        -0.3884725740         0.0000000000
H       -3.0395399830         0.5136327920        -0.8759681900
C       -0.9046724430        -1.8383324720         0.0000000000
N       -0.3789649260         0.4930524340         0.0000000000
H       -1.3198440960        -2.3414514830        -0.8760705300
H       -1.3198440960        -2.3414514830         0.8760705300
H        0.1751989230        -1.9507269770         0.0000000000
C       -0.7421105710         1.9000770830         0.0000000000
H       -1.3293319940         2.1709172410        -0.8821977540
H       -1.3293319940         2.1709172410         0.8821977540
H        0.1635566700         2.5017598020         0.0000000000

6.008_CH-N__ethyne--Nmethyl2propanimine_2.wfx

