%nprocs=4
%mem=2GB
#p hf aug-cc-pvdz output=wfx scf=(conver=6) int=(grid=ultrafine)

title

0 1
  C    2.632381871  -0.000000257   0.000000000
  H    1.565358322  -0.000000754   0.000000000
  C    3.829307843   0.000000417   0.000000000
  H    4.890207532   0.000001030   0.000000000
  H   -3.477720293  -0.511142385  -0.885325248
  H   -3.477720293  -0.511142385   0.885325248
  H   -3.477720103   1.022285970   0.000000000
  C   -3.104070953   0.000000384   0.000000000
  C   -1.650931641   0.000000039   0.000000000
  N   -0.503510407  -0.000000642   0.000000000

6.001_CH-N__ethyne--acetonitrile_090.wfx

