%nprocs=4
%mem=2GB
#p hf aug-cc-pvdz output=wfx scf=(conver=6) int=(grid=ultrafine)

title

0 1
C       -3.1263059420        -0.3237831580        -0.0850351800
C       -3.9772811780        -1.1630855020        -0.1466801620
H       -2.3701661800         0.4285126070        -0.0285052610
H       -4.7292335400        -1.9096171130        -0.2021882670

6.003_CH-N__ethyne--aniline_1.wfx

