%nprocs=4
%mem=2GB
#p hf aug-cc-pvdz output=wfx scf=(conver=6) int=(grid=ultrafine)

title

0 1
C        2.2834124830         0.0000071370         0.0000000460
H        1.2073381540         0.0000108750         0.0000000690
C        3.4812671170         0.0000011340         0.0000000670
H        4.5423883650        -0.0000044620         0.0000000950

6.010_CH-N__ethyne--trimethylamine_1.wfx

