%nprocs=4
%mem=2GB
#p hf aug-cc-pvdz output=wfx scf=(conver=6) int=(grid=ultrafine)

title

0 1
  C    2.283412483   0.000007137   0.000000046
  H    1.207338154   0.000010875   0.000000069
  C    3.481267117   0.000001134   0.000000067
  H    4.542388365  -0.000004462   0.000000095
  H   -4.585430473   0.746356643   1.292991225
  H   -3.099071296   0.182808463   2.081882021
  H   -3.099072340   1.711344551   1.199543840
  H   -3.099071975   1.711543345  -1.199260301
  H   -4.585430089   0.746570823  -1.292867937
  H   -3.099070702   0.183153466  -2.081851618
  H   -4.585411483  -1.492981539  -0.000123806
  H   -3.099047945  -1.894383139  -0.882616908
  C   -3.488760037   0.694353126   1.202903585
  N   -3.061302276  -0.000011467   0.000000059
  C   -3.488759686   0.694552527  -1.202788570
  C   -3.488742944  -1.388946266  -0.000115189
  H   -3.099048267  -1.894529391   0.882302944

6.010_CH-N__ethyne--trimethylamine_200.wfx

