%nprocs=4
%mem=2GB
#p hf aug-cc-pvdz output=wfx scf=(conver=6) int=(grid=ultrafine)

title

0 1
  H    1.300384215   1.862983925   0.902773771
  H   -0.206479321   1.497441847   0.000000000
  H    1.300384215   1.862983925  -0.902773771
  C    0.883715621   1.433516356   0.000000000
  N    1.190457063  -0.027105697   0.000000000
  O    1.283973066  -0.580655658   1.081974411
  O    1.283973066  -0.580655658  -1.081974411
  N   -3.422268634   0.166241779   0.000000000
  H   -3.956994477   0.449436961   0.810922096
  H   -3.956994477   0.449436961  -0.810922096
  C   -3.219600798  -1.289182237   0.000000000
  H   -2.638922351  -1.569973380  -0.876484606
  H   -4.144465706  -1.874335807   0.000000000
  H   -2.638922351  -1.569973380   0.876484606

6.018_CH-N__nitromethane--methylamine_150.wfx

