%nprocs=4
%mem=2GB
#p hf aug-cc-pvdz output=wfx scf=(conver=6) int=(grid=ultrafine)

title

0 1
  H    1.106072405   1.441982443  -1.351704141
  H    1.328457188   2.315260346   0.190512700
  H   -0.272332719   1.594326646  -0.208746230
  C    0.806822678   1.507807239  -0.308641488
  O    1.248661687   0.293334833   0.384623530
  C    0.648520988  -0.785933049   0.050030179
  N    0.125365345  -1.779766688  -0.222719375
  N   -2.488671005   0.349915680   0.096438122
  H   -2.107035338  -0.580145703  -0.039886479
  H   -3.202884736   0.487959622  -0.607737865
  H   -2.956538901   0.351034367   0.994330412

6.012_CH-N__methylcyanate--ammonia_105.wfx

