%nprocs=4
%mem=2GB
#p hf aug-cc-pvdz output=wfx scf=(conver=6) int=(grid=ultrafine)

title

0 1
  H    1.843396077  -1.728471613   1.218350944
  H    1.731075415  -2.454832393  -0.409736068
  H    0.335689336  -1.528364325   0.256891953
  C    1.418217632  -1.632781568   0.222403941
  O    1.978858068  -0.436965743  -0.415198276
  C    1.612718057   0.682256790   0.085749309
  N    1.302092215   1.713447478   0.505031508
  H   -2.559172245  -0.243329207  -1.831875673
  H   -2.971026811   1.442731341  -1.495785595
  H   -1.290768260   0.983912889  -1.818746811
  H   -1.490782516   1.179946098   0.489109465
  H   -2.925502897  -0.069218345   1.868507817
  H   -3.584786666  -0.873178583   0.444916446
  H   -3.947519195   0.831953144   0.732956522
  C   -2.212110018   0.664246783  -1.335182710
  N   -1.956901418   0.385246519   0.070787597
  C   -3.165326880   0.063829838   0.814657246

6.013_CH-N__methylcyanate--dimethylamine_125.wfx

