%nprocs=4
%mem=2GB
#p hf aug-cc-pvdz output=wfx scf=(conver=6) int=(grid=ultrafine)

title

0 1
  H    1.300384215   1.862983925   0.902773771
  H   -0.206479321   1.497441847   0.000000000
  H    1.300384215   1.862983925  -0.902773771
  C    0.883715621   1.433516356   0.000000000
  N    1.190457063  -0.027105697   0.000000000
  O    1.283973066  -0.580655658   1.081974411
  O    1.283973066  -0.580655658  -1.081974411
  N   -2.135952909   0.698721806   0.000000000
  H   -2.670678752   0.981916988   0.810922096
  H   -2.670678752   0.981916988  -0.810922096
  C   -1.933285073  -0.756702210   0.000000000
  H   -1.352606626  -1.037493353  -0.876484606
  H   -2.858149981  -1.341855780   0.000000000
  H   -1.352606626  -1.037493353   0.876484606

6.018_CH-N__nitromethane--methylamine_090.wfx

