%nprocs=4
%mem=2GB
#p hf aug-cc-pvdz output=wfx scf=(conver=6) int=(grid=ultrafine)

title

0 1
  H    1.106072405   1.441982443  -1.351704141
  H    1.328457188   2.315260346   0.190512700
  H   -0.272332719   1.594326646  -0.208746230
  C    0.806822678   1.507807239  -0.308641488
  O    1.248661687   0.293334833   0.384623530
  C    0.648520988  -0.785933049   0.050030179
  N    0.125365345  -1.779766688  -0.222719375
  N   -2.383131087   0.409173345   0.081905534
  H   -2.001495420  -0.520888038  -0.054419067
  H   -3.097344818   0.547217287  -0.622270453
  H   -2.850998983   0.410292032   0.979797824

6.012_CH-N__methylcyanate--ammonia_100.wfx

