%nprocs=4
%mem=2GB
#p hf aug-cc-pvdz output=wfx scf=(conver=6) int=(grid=ultrafine)

title

0 1
  H    2.004943888   1.727033527   0.875557006
  H    2.004943888   1.727033527  -0.875557006
  H    0.548632130   1.099158806   0.000000000
  C    1.635542562   1.189504088   0.000000000
  N    2.320876672  -0.117799410   0.000000000
  O    1.579852910  -1.063145924   0.000000000
  H   -1.017930070  -0.882578046  -1.266032305
  H   -2.783562494  -0.977101081  -1.261886905
  H   -1.961058933   0.362493950  -2.086643210
  H   -2.675080934   1.168613095   0.000000000
  H   -1.961058933   0.362493950   2.086643210
  H   -1.017930070  -0.882578046   1.266032305
  H   -2.783562494  -0.977101081   1.261886905
  C   -1.929169905  -0.286813897  -1.212798705
  N   -1.901102014   0.518868809   0.000000000
  C   -1.929169905  -0.286813897   1.212798705

6.019_CH-N__nitrosomethane--dimethylamine_105.wfx

