%nprocs=4
%mem=2GB
#p hf aug-cc-pvdz output=wfx scf=(conver=6) int=(grid=ultrafine)

title

0 1
N        2.9718896600         0.5906392350        -0.3467013540
C        2.9767732940        -0.6183563790         0.4817746950
H        3.0988802900         0.3569021330        -1.3225192280
H        3.7319205320         1.2067286620        -0.0912922120
H        2.1383313820        -1.2509264310         0.1959539020
H        2.8288364250        -0.3376925760         1.5237341070
H        3.8940248930        -1.2135764090         0.4173059030

6.011_CH-N__furan--methylamine_2.wfx

