%nprocs=4
%mem=2GB
#p hf aug-cc-pvdz output=wfx scf=(conver=6) int=(grid=ultrafine)

title

0 1
  H    1.300384215   1.862983925   0.902773771
  H   -0.206479321   1.497441847   0.000000000
  H    1.300384215   1.862983925  -0.902773771
  C    0.883715621   1.433516356   0.000000000
  N    1.190457063  -0.027105697   0.000000000
  O    1.283973066  -0.580655658   1.081974411
  O    1.283973066  -0.580655658  -1.081974411
  N   -4.494198405  -0.277491577   0.000000000
  H   -5.028924248   0.005703605   0.810922096
  H   -5.028924248   0.005703605  -0.810922096
  C   -4.291530569  -1.732915593   0.000000000
  H   -3.710852122  -2.013706736  -0.876484606
  H   -5.216395477  -2.318069163   0.000000000
  H   -3.710852122  -2.013706736   0.876484606

6.018_CH-N__nitromethane--methylamine_200.wfx

