%nprocs=4
%mem=2GB
#p hf aug-cc-pvdz output=wfx scf=(conver=6) int=(grid=ultrafine)

title

0 1
  H   -1.484739676  -2.404787069   0.245426547
  H   -1.861017011  -1.447156479  -1.214646250
  H   -0.166551639  -1.529404495  -0.616288004
  C   -1.219026747  -1.534165478  -0.341673449
  O   -1.474391421  -0.394246630   0.545379775
  C   -1.104858440   0.748083159   0.102336187
  N   -0.779507848   1.796786132  -0.258056334
  N    1.832374469  -0.197313160  -0.681135691
  H    1.402014909   0.681617869  -0.941611423
  H    2.563833572  -0.383641076  -1.354316876
  C    2.387619749  -0.103798672   0.671654663
  H    2.808706723  -1.066623119   0.959501683
  H    3.164889696   0.657510688   0.793518643
  H    1.585892358   0.127482888   1.371262215

6.014_CH-N__methylcyanate--methylamine_100.wfx

