%nprocs=4
%mem=2GB
#p hf aug-cc-pvdz output=wfx scf=(conver=6) int=(grid=ultrafine)

title

0 1
N        1.8323744690        -0.1973131600        -0.6811356910
H        2.5638335720        -0.3836410760        -1.3543168760
H        1.4020149090         0.6816178690        -0.9416114230
C        2.3876197490        -0.1037986720         0.6716546630
H        2.8087067230        -1.0666231190         0.9595016830
H        3.1648896960         0.6575106880         0.7935186430
H        1.5858923580         0.1274828880         1.3712622150

6.014_CH-N__methylcyanate--methylamine_2.wfx

