%nprocs=4
%mem=2GB
#p hf aug-cc-pvdz output=wfx scf=(conver=6) int=(grid=ultrafine)

title

0 1
H        1.3003842150         1.8629839250         0.9027737710
C        0.8837156210         1.4335163560         0.0000000000
N        1.1904570630        -0.0271056970         0.0000000000
H        1.3003842150         1.8629839250        -0.9027737710
H       -0.2064793210         1.4974418470         0.0000000000
O        1.2839730660        -0.5806556580        -1.0819744110
O        1.2839730660        -0.5806556580         1.0819744110

6.018_CH-N__nitromethane--methylamine_1.wfx

