%nprocs=4
%mem=2GB
#p hf aug-cc-pvdz output=wfx scf=(conver=6) int=(grid=ultrafine)

title

0 1
  H    1.106072405   1.441982443  -1.351704141
  H    1.328457188   2.315260346   0.190512700
  H   -0.272332719   1.594326646  -0.208746230
  C    0.806822678   1.507807239  -0.308641488
  O    1.248661687   0.293334833   0.384623530
  C    0.648520988  -0.785933049   0.050030179
  N    0.125365345  -1.779766688  -0.222719375
  N   -2.277591169   0.468431010   0.067372946
  H   -1.895955502  -0.461630373  -0.068951655
  H   -2.991804900   0.606474952  -0.636803041
  H   -2.745459065   0.469549697   0.965265236

6.012_CH-N__methylcyanate--ammonia_095.wfx

