%nprocs=4
%mem=2GB
#p hf aug-cc-pvdz output=wfx scf=(conver=6) int=(grid=ultrafine)

title

0 1
  H    1.460874612  -1.706457457  -0.921643441
  H    2.069562482  -1.661956445   0.720247802
  H    0.352980787  -1.175969316   0.409024102
  C    1.374319670  -1.179900380   0.030490162
  N    1.899760556   0.180096078  -0.199890236
  O    1.131730578   1.061930818   0.075731870
  N   -1.514651092  -0.256913927   0.662530400
  H   -2.264632567  -0.113407180   1.325214402
  H   -0.817904479   0.457655635   0.830181192
  C   -2.009342227  -0.169588334  -0.711266199
  H   -1.179256161  -0.323002709  -1.400478396
  H   -2.483886072   0.783270151  -0.970969608
  H   -2.731519609  -0.965794823  -0.888983680

6.020_CH-N__nitrosomethane--methylamine_085.wfx

