%nprocs=4
%mem=2GB
#p hf aug-cc-pvdz output=wfx scf=(conver=6) int=(grid=ultrafine)

title

0 1
  H    1.460874612  -1.706457457  -0.921643441
  H    2.069562482  -1.661956445   0.720247802
  H    0.352980787  -1.175969316   0.409024102
  C    1.374319670  -1.179900380   0.030490162
  N    1.899760556   0.180096078  -0.199890236
  O    1.131730578   1.061930818   0.075731870
  N   -2.942840176   0.445893135   0.856388158
  H   -3.692821650   0.589399882   1.519072160
  H   -2.246093562   1.160462697   1.024038950
  C   -3.437531310   0.533218728  -0.517408441
  H   -2.607445244   0.379804353  -1.206620638
  H   -3.912075156   1.486077213  -0.777111850
  H   -4.159708692  -0.262987761  -0.695125922

6.020_CH-N__nitrosomethane--methylamine_150.wfx

