%nprocs=4
%mem=2GB
#p hf aug-cc-pvdz output=wfx scf=(conver=6) int=(grid=ultrafine)

title

0 1
  H    1.460874612  -1.706457457  -0.921643441
  H    2.069562482  -1.661956445   0.720247802
  H    0.352980787  -1.175969316   0.409024102
  C    1.374319670  -1.179900380   0.030490162
  N    1.899760556   0.180096078  -0.199890236
  O    1.131730578   1.061930818   0.075731870
  N   -1.404790393  -0.310976009   0.647618265
  H   -2.154771868  -0.167469262   1.310302267
  H   -0.708043780   0.403593553   0.815269057
  C   -1.899481528  -0.223650416  -0.726178334
  H   -1.069395462  -0.377064791  -1.415390531
  H   -2.374025373   0.729208069  -0.985881743
  H   -2.621658910  -1.019856905  -0.903895815

6.020_CH-N__nitrosomethane--methylamine_080.wfx

