%nprocs=4
%mem=2GB
#p hf aug-cc-pvdz output=wfx scf=(conver=6) int=(grid=ultrafine)

title

0 1
  H    1.460874612  -1.706457457  -0.921643441
  H    2.069562482  -1.661956445   0.720247802
  H    0.352980787  -1.175969316   0.409024102
  C    1.374319670  -1.179900380   0.030490162
  N    1.899760556   0.180096078  -0.199890236
  O    1.131730578   1.061930818   0.075731870
  N   -1.954093887  -0.040665600   0.722178941
  H   -2.704075362   0.102841147   1.384862943
  H   -1.257347274   0.673903962   0.889829733
  C   -2.448785022   0.046659993  -0.651617658
  H   -1.618698956  -0.106754382  -1.340829855
  H   -2.923328867   0.999518478  -0.911321067
  H   -3.170962404  -0.749546496  -0.829335139

6.020_CH-N__nitrosomethane--methylamine_105.wfx

