%nprocs=4
%mem=2GB
#p hf aug-cc-pvdz output=wfx scf=(conver=6) int=(grid=ultrafine)

title

0 1
  H    1.460874612  -1.706457457  -0.921643441
  H    2.069562482  -1.661956445   0.720247802
  H    0.352980787  -1.175969316   0.409024102
  C    1.374319670  -1.179900380   0.030490162
  N    1.899760556   0.180096078  -0.199890236
  O    1.131730578   1.061930818   0.075731870
  N   -1.624511790  -0.202851845   0.677442536
  H   -2.374493266  -0.059345098   1.340126538
  H   -0.927765178   0.511717717   0.845093328
  C   -2.119202926  -0.115526252  -0.696354063
  H   -1.289116860  -0.268940627  -1.385566260
  H   -2.593746770   0.837332233  -0.956057472
  H   -2.841380308  -0.911732741  -0.874071544

6.020_CH-N__nitrosomethane--methylamine_090.wfx

