%nprocs=4
%mem=2GB
#p hf aug-cc-pvdz output=wfx scf=(conver=6) int=(grid=ultrafine)

title

0 1
  N    2.314242557  -0.073479079   0.000000000
  H    2.909570082  -0.162864261   0.813768998
  H    2.909570082  -0.162864261  -0.813768998
  H    1.687909075  -0.869930873   0.000000000
  H    0.292831244   1.418158608   0.000000000
  H   -1.228465516   1.699698903   0.886529949
  H   -1.228465516   1.699698903  -0.886529949
  C   -1.171519532  -1.299883087   0.000000000
  N   -1.022533868  -0.146922325   0.000000000
  C   -0.783237495   1.252962448   0.000000000

7.008_noHB__ammonia--methylisocyanide_100.wfx

