%nprocs=4
%mem=2GB
#p hf aug-cc-pvdz output=wfx scf=(conver=6) int=(grid=ultrafine)

title

0 1
H        0.4984570640         1.9205091490         0.9909285860
C        0.9799689700         1.0661064940         0.5523730230
N        0.8170872100         0.7622054840        -0.7730992980
C        1.8017021430         0.1111912900         1.1009052180
H        0.2032713280         1.2460466240        -1.4020115800
C        1.5110929290        -0.3776438760        -1.0801547610
C        2.1390636830        -0.8045335670         0.0657049580
H        2.1287556900         0.0760484250         2.1248361890
H        1.5010881910        -0.7853605810        -2.0740876850
H        2.7738608940        -1.6686044610         0.1504971780

7.004_noHB__1Hpyrrole--nitrosomethane_1.wfx

