%nprocs=4
%mem=2GB
#p hf aug-cc-pvdz output=wfx scf=(conver=6) int=(grid=ultrafine)

title

0 1
H       -0.8633735020        -0.7696291890         2.1040404080
C       -1.1405621660        -0.4366536100         1.1208019130
N       -0.6494508280        -1.0499482330         0.0000000000
C       -1.9741754370         0.5777525390         0.7108110920
C       -1.1405621660        -0.4366536100        -1.1208019130
H        0.0501975960        -1.7701060310         0.0000000000
C       -1.9741754370         0.5777525390        -0.7108110920
H       -2.5268828450         1.2373019010         1.3560549330
H       -0.8633735020        -0.7696291890        -2.1040404080
H       -2.5268828450         1.2373019010        -1.3560549330

7.003_noHB__1Hpyrrole--methylisocyanide_1.wfx

