%nprocs=4
%mem=2GB
#p hf aug-cc-pvdz output=wfx scf=(conver=6) int=(grid=ultrafine)

title

0 1
  H    0.498457064   1.920509149   0.990928586
  H    2.128755690   0.076048425   2.124836189
  H    2.773860894  -1.668604461   0.150497178
  H    1.501088191  -0.785360581  -2.074087685
  N    0.817087210   0.762205484  -0.773099298
  C    0.979968970   1.066106494   0.552373023
  C    1.801702143   0.111191290   1.100905218
  C    2.139063683  -0.804533567   0.065704958
  C    1.511092929  -0.377643876  -1.080154761
  H    0.203271328   1.246046624  -1.402011580
  H   -1.239387230  -1.409311549   0.440292188
  H   -2.693901268  -2.281997917  -0.027851411
  H   -2.715570193  -1.263828212   1.467393307
  C   -2.330551116  -1.374254096   0.455370513
  N   -2.729617937  -0.245788210  -0.401750811
  O   -3.338845470   0.618824107   0.168848982

7.004_noHB__1Hpyrrole--nitrosomethane_125.wfx

