%nprocs=4
%mem=2GB
#p hf aug-cc-pvdz output=wfx scf=(conver=6) int=(grid=ultrafine)

title

0 1
  N   -2.280467385   0.030994158   0.000000000
  H   -1.660112384   0.832542244   0.000000000
  H   -2.876848019   0.115781008   0.813542773
  H   -2.876848019   0.115781008  -0.813542773
  H    1.310197802  -1.743328780   0.885483571
  H   -0.222057987  -1.550979032   0.000000000
  H    1.310197802  -1.743328780  -0.885483571
  C    0.842161429  -1.316968061   0.000000000
  C    0.989665559   0.128204991   0.000000000
  N    1.070604793   1.274303061   0.000000000

7.006_noHB__ammonia--acetonitrile_100.wfx

