%nprocs=4
%mem=2GB
#p hf aug-cc-pvdz output=wfx scf=(conver=6) int=(grid=ultrafine)

title

0 1
  N   -2.387622510   0.386855807   0.053029924
  H   -2.170349904  -0.586662948  -0.125135486
  H   -2.600934499   0.466185686   1.039693239
  H   -3.237621247   0.602395994  -0.452609222
  H    0.069999738   1.667380721  -0.364613649
  H    1.564541069   1.444618101  -1.314616289
  H    1.623588070   2.309968182   0.228755642
  C    1.144909089   1.498725329  -0.308403431
  N    1.433722070   0.266047350   0.447000792
  N    0.899686286  -0.753596528   0.043270412
  N    0.461303156  -1.758205938  -0.238185924

7.007_noHB__ammonia--methylazide_110.wfx

