%nprocs=4
%mem=2GB
#p hf aug-cc-pvdz output=wfx scf=(conver=6) int=(grid=ultrafine)

title

0 1
  N   -2.280467385   0.030994158   0.000000000
  H   -1.660112384   0.832542244   0.000000000
  H   -2.876848019   0.115781008   0.813542773
  H   -2.876848019   0.115781008  -0.813542773
  H    0.921068360  -1.728453737   0.885483571
  H   -0.611187429  -1.536103989   0.000000000
  H    0.921068360  -1.728453737  -0.885483571
  C    0.453031987  -1.302093018   0.000000000
  C    0.600536117   0.143080034   0.000000000
  N    0.681475351   1.289178104   0.000000000

7.006_noHB__ammonia--acetonitrile_085.wfx

