%nprocs=4
%mem=2GB
#p hf aug-cc-pvdz output=wfx scf=(conver=6) int=(grid=ultrafine)

title

0 1
  N   -2.387622510   0.386855807   0.053029924
  H   -2.170349904  -0.586662948  -0.125135486
  H   -2.600934499   0.466185686   1.039693239
  H   -3.237621247   0.602395994  -0.452609222
  H   -0.701083513   1.777044689  -0.342169602
  H    0.793457818   1.554282069  -1.292172242
  H    0.852504819   2.419632150   0.251199689
  C    0.373825838   1.608389297  -0.285959384
  N    0.662638819   0.375711318   0.469444839
  N    0.128603035  -0.643932560   0.065714459
  N   -0.309780095  -1.648541970  -0.215741877

7.007_noHB__ammonia--methylazide_080.wfx

