%nprocs=4
%mem=2GB
#p hf aug-cc-pvdz output=wfx scf=(conver=6) int=(grid=ultrafine)

title

0 1
N       -2.2804673850         0.0309941580         0.0000000000
H       -2.8768480190         0.1157810080        -0.8135427730
H       -2.8768480190         0.1157810080         0.8135427730
H       -1.6601123840         0.8325422440         0.0000000000

7.006_noHB__ammonia--acetonitrile_1.wfx

