%nprocs=4
%mem=2GB
#p hf aug-cc-pvdz output=wfx scf=(conver=6) int=(grid=ultrafine)

title

0 1
  N    2.314242557  -0.073479079   0.000000000
  H    2.909570082  -0.162864261   0.813768998
  H    2.909570082  -0.162864261  -0.813768998
  H    1.687909075  -0.869930873   0.000000000
  H    0.543658635   1.404141239   0.000000000
  H   -0.977638125   1.685681534   0.886529949
  H   -0.977638125   1.685681534  -0.886529949
  C   -0.920692141  -1.313900456   0.000000000
  N   -0.771706477  -0.160939694   0.000000000
  C   -0.532410104   1.238945079   0.000000000

7.008_noHB__ammonia--methylisocyanide_090.wfx

