%nprocs=4
%mem=2GB
#p hf aug-cc-pvdz output=wfx scf=(conver=6) int=(grid=ultrafine)

title

0 1
H       -0.1870280120         1.7039353770        -0.3571323000
C        0.8878813390         1.5352799850        -0.3009220820
N        1.1766943200         0.3026020060         0.4544821410
H        1.3075133190         1.4811727570        -1.3071349400
H        1.3665603200         2.3465228380         0.2362369910
N        0.6426585360        -0.7170418720         0.0507517610
N        0.2042754060        -1.7216512820        -0.2307045750

7.007_noHB__ammonia--methylazide_2.wfx

