%nprocs=4
%mem=2GB
#p hf aug-cc-pvdz output=wfx scf=(conver=6) int=(grid=ultrafine)

title

0 1
  N   -2.280467385   0.030994158   0.000000000
  H   -1.660112384   0.832542244   0.000000000
  H   -2.876848019   0.115781008   0.813542773
  H   -2.876848019   0.115781008  -0.813542773
  H    1.180487988  -1.738370432   0.885483571
  H   -0.351767801  -1.546020684   0.000000000
  H    1.180487988  -1.738370432  -0.885483571
  C    0.712451615  -1.312009713   0.000000000
  C    0.859955745   0.133163339   0.000000000
  N    0.940894979   1.279261409   0.000000000

7.006_noHB__ammonia--acetonitrile_095.wfx

