%nprocs=4
%mem=2GB
#p hf aug-cc-pvdz output=wfx scf=(conver=6) int=(grid=ultrafine)

title

0 1
H       -0.4378999190        -1.6421567690         0.0000000000
C        0.6257030450        -1.4130307490         0.0000000000
H        1.1036222780        -1.7716716100        -0.9031778050
H        1.1036222780        -1.7716716100         0.9031778050
N        0.6925603960         0.0780099880         0.0000000000
O        0.6947368500         0.6390176860        -1.0816557390
O        0.6947368500         0.6390176860         1.0816557390

7.009_noHB__ammonia--nitromethane_2.wfx

