%nprocs=4
%mem=2GB
#p hf aug-cc-pvdz output=wfx scf=(conver=6) int=(grid=ultrafine)

title

0 1
  N   -2.387622510   0.386855807   0.053029924
  H   -2.170349904  -0.586662948  -0.125135486
  H   -2.600934499   0.466185686   1.039693239
  H   -3.237621247   0.602395994  -0.452609222
  H    2.383249491   1.338388818  -0.431945788
  H    3.877790822   1.115626198  -1.381948428
  H    3.936837823   1.980976279   0.161423503
  C    3.458158842   1.169733426  -0.375735570
  N    3.746971823  -0.062944553   0.379668653
  N    3.212936039  -1.082588431  -0.024061727
  N    2.774552909  -2.087197841  -0.305518063

7.007_noHB__ammonia--methylazide_200.wfx

