%nprocs=4
%mem=2GB
#p hf aug-cc-pvdz output=wfx scf=(conver=6) int=(grid=ultrafine)

title

0 1
  N   -2.280467385   0.030994158   0.000000000
  H   -1.660112384   0.832542244   0.000000000
  H   -2.876848019   0.115781008   0.813542773
  H   -2.876848019   0.115781008  -0.813542773
  H    3.904394082  -1.842495734   0.885483571
  H    2.372138293  -1.650145986   0.000000000
  H    3.904394082  -1.842495734  -0.885483571
  C    3.436357709  -1.416135015   0.000000000
  C    3.583861839   0.029038037   0.000000000
  N    3.664801073   1.175136107   0.000000000

7.006_noHB__ammonia--acetonitrile_200.wfx

