%nprocs=4
%mem=2GB
#p hf aug-cc-pvdz output=wfx scf=(conver=6) int=(grid=ultrafine)

title

0 1
N       -2.3833829100        -0.0163662390         0.0000000000
H       -2.2075472560         0.5615975250        -0.8129764370
H       -2.2075472560         0.5615975250         0.8129764370
H       -3.3694551420        -0.2432476690         0.0000000000

7.009_noHB__ammonia--nitromethane_1.wfx

