%nprocs=4
%mem=2GB
#p hf aug-cc-pvdz output=wfx scf=(conver=6) int=(grid=ultrafine)

title

0 1
H        0.2928312440         1.4181586080         0.0000000000
C       -0.7832374950         1.2529624480         0.0000000000
N       -1.0225338680        -0.1469223250         0.0000000000
H       -1.2284655160         1.6996989030        -0.8865299490
H       -1.2284655160         1.6996989030         0.8865299490
C       -1.1715195320        -1.2998830870         0.0000000000

7.008_noHB__ammonia--methylisocyanide_2.wfx

