%nprocs=4
%mem=2GB
#p hf aug-cc-pvdz output=wfx scf=(conver=6) int=(grid=ultrafine)

title

0 1
  N   -2.280467385   0.030994158   0.000000000
  H   -1.660112384   0.832542244   0.000000000
  H   -2.876848019   0.115781008   0.813542773
  H   -2.876848019   0.115781008  -0.813542773
  H    1.439907616  -1.748287128   0.885483571
  H   -0.092348173  -1.555937380   0.000000000
  H    1.439907616  -1.748287128  -0.885483571
  C    0.971871243  -1.321926409   0.000000000
  C    1.119375373   0.123246643   0.000000000
  N    1.200314607   1.269344713   0.000000000

7.006_noHB__ammonia--acetonitrile_105.wfx

