%nprocs=4
%mem=2GB
#p hf aug-cc-pvdz output=wfx scf=(conver=6) int=(grid=ultrafine)

title

0 1
  N    2.314242557  -0.073479079   0.000000000
  H    2.909570082  -0.162864261   0.813768998
  H    2.909570082  -0.162864261  -0.813768998
  H    1.687909075  -0.869930873   0.000000000
  H   -2.215442669   1.558332293   0.000000000
  H   -3.736739429   1.839872588   0.886529949
  H   -3.736739429   1.839872588  -0.886529949
  C   -3.679793445  -1.159709402   0.000000000
  N   -3.530807781  -0.006748640   0.000000000
  C   -3.291511408   1.393136133   0.000000000

7.008_noHB__ammonia--methylisocyanide_200.wfx

