%nprocs=4
%mem=2GB
#p hf aug-cc-pvdz output=wfx scf=(conver=6) int=(grid=ultrafine)

title

0 1
  N   -2.383382910  -0.016366239   0.000000000
  H   -2.207547256   0.561597525  -0.812976437
  H   -2.207547256   0.561597525   0.812976437
  H   -3.369455142  -0.243247669   0.000000000
  H   -0.184395213  -1.646200670   0.000000000
  H    1.357126984  -1.775715511   0.903177805
  H    1.357126984  -1.775715511  -0.903177805
  C    0.879207751  -1.417074650   0.000000000
  N    0.946065102   0.073966087   0.000000000
  O    0.948241556   0.634973785  -1.081655739
  O    0.948241556   0.634973785   1.081655739

7.009_noHB__ammonia--nitromethane_110.wfx

