%nprocs=4
%mem=2GB
#p hf aug-cc-pvdz output=wfx scf=(conver=6) int=(grid=ultrafine)

title

0 1
  N   -2.387622510   0.386855807   0.053029924
  H   -2.170349904  -0.586662948  -0.125135486
  H   -2.600934499   0.466185686   1.039693239
  H   -3.237621247   0.602395994  -0.452609222
  H    0.455541364   1.612548737  -0.375835672
  H    1.950082695   1.389786117  -1.325838312
  H    2.009129696   2.255136198   0.217533619
  C    1.530450715   1.443893345  -0.319625454
  N    1.819263696   0.211215366   0.435778769
  N    1.285227912  -0.808428512   0.032048389
  N    0.846844782  -1.813037922  -0.249407947

7.007_noHB__ammonia--methylazide_125.wfx

