%nprocs=4
%mem=2GB
#p hf aug-cc-pvdz output=wfx scf=(conver=6) int=(grid=ultrafine)

title

0 1
H        1.3101978020        -1.7433287800         0.8854835710
C        0.8421614290        -1.3169680610         0.0000000000
H        1.3101978020        -1.7433287800        -0.8854835710
H       -0.2220579870        -1.5509790320         0.0000000000
C        0.9896655590         0.1282049910         0.0000000000
N        1.0706047930         1.2743030610         0.0000000000

7.006_noHB__ammonia--acetonitrile_2.wfx

