%nprocs=4
%mem=2GB
#p hf aug-cc-pvdz output=wfx scf=(conver=6) int=(grid=ultrafine)

title

0 1
  N   -2.383382910  -0.016366239   0.000000000
  H   -2.207547256   0.561597525  -0.812976437
  H   -2.207547256   0.561597525   0.812976437
  H   -3.369455142  -0.243247669   0.000000000
  H   -0.944909331  -1.634068967   0.000000000
  H    0.596612866  -1.763583808   0.903177805
  H    0.596612866  -1.763583808  -0.903177805
  C    0.118693633  -1.404942947   0.000000000
  N    0.185550984   0.086097790   0.000000000
  O    0.187727438   0.647105488  -1.081655739
  O    0.187727438   0.647105488   1.081655739

7.009_noHB__ammonia--nitromethane_080.wfx

