%nprocs=4
%mem=2GB
#p hf aug-cc-pvdz output=wfx scf=(conver=6) int=(grid=ultrafine)

title

0 1
  N   -2.383382910  -0.016366239   0.000000000
  H   -2.207547256   0.561597525  -0.812976437
  H   -2.207547256   0.561597525   0.812976437
  H   -3.369455142  -0.243247669   0.000000000
  H   -0.437899919  -1.642156769   0.000000000
  H    1.103622278  -1.771671610   0.903177805
  H    1.103622278  -1.771671610  -0.903177805
  C    0.625703045  -1.413030749   0.000000000
  N    0.692560396   0.078009988   0.000000000
  O    0.694736850   0.639017686  -1.081655739
  O    0.694736850   0.639017686   1.081655739

7.009_noHB__ammonia--nitromethane_100.wfx

