%nprocs=4
%mem=2GB
#p hf aug-cc-pvdz output=wfx scf=(conver=6) int=(grid=ultrafine)

title

0 1
  N    2.314242557  -0.073479079   0.000000000
  H    2.909570082  -0.162864261   0.813768998
  H    2.909570082  -0.162864261  -0.813768998
  H    1.687909075  -0.869930873   0.000000000
  H    0.418244940   1.411149924   0.000000000
  H   -1.103051820   1.692690219   0.886529949
  H   -1.103051820   1.692690219  -0.886529949
  C   -1.046105836  -1.306891771   0.000000000
  N   -0.897120172  -0.153931009   0.000000000
  C   -0.657823799   1.245953764   0.000000000

7.008_noHB__ammonia--methylisocyanide_095.wfx

