%nprocs=4
%mem=2GB
#p hf aug-cc-pvdz output=wfx scf=(conver=6) int=(grid=ultrafine)

title

0 1
  N    2.314242557  -0.073479079   0.000000000
  H    2.909570082  -0.162864261   0.813768998
  H    2.909570082  -0.162864261  -0.813768998
  H    1.687909075  -0.869930873   0.000000000
  H    0.794486027   1.390123871   0.000000000
  H   -0.726810733   1.671664166   0.886529949
  H   -0.726810733   1.671664166  -0.886529949
  C   -0.669864749  -1.327917824   0.000000000
  N   -0.520879085  -0.174957062   0.000000000
  C   -0.281582712   1.224927711   0.000000000

7.008_noHB__ammonia--methylisocyanide_080.wfx

