%nprocs=4
%mem=2GB
#p hf aug-cc-pvdz output=wfx scf=(conver=6) int=(grid=ultrafine)

title

0 1
N       -2.3876225100         0.3868558070         0.0530299240
H       -2.1703499040        -0.5866629480        -0.1251354860
H       -2.6009344990         0.4661856860         1.0396932390
H       -3.2376212470         0.6023959940        -0.4526092220

7.007_noHB__ammonia--methylazide_1.wfx

