%nprocs=4
%mem=2GB
#p hf aug-cc-pvdz output=wfx scf=(conver=6) int=(grid=ultrafine)

title

0 1
  N   -2.383382910  -0.016366239   0.000000000
  H   -2.207547256   0.561597525  -0.812976437
  H   -2.207547256   0.561597525   0.812976437
  H   -3.369455142  -0.243247669   0.000000000
  H   -0.311147566  -1.644178719   0.000000000
  H    1.230374631  -1.773693560   0.903177805
  H    1.230374631  -1.773693560  -0.903177805
  C    0.752455398  -1.415052699   0.000000000
  N    0.819312749   0.075988038   0.000000000
  O    0.821489203   0.636995736  -1.081655739
  O    0.821489203   0.636995736   1.081655739

7.009_noHB__ammonia--nitromethane_105.wfx

