%nprocs=4
%mem=2GB
#p hf aug-cc-pvdz output=wfx scf=(conver=6) int=(grid=ultrafine)

title

0 1
  N   -2.383382910  -0.016366239   0.000000000
  H   -2.207547256   0.561597525  -0.812976437
  H   -2.207547256   0.561597525   0.812976437
  H   -3.369455142  -0.243247669   0.000000000
  H    0.829623612  -1.662376274   0.000000000
  H    2.371145809  -1.791891115   0.903177805
  H    2.371145809  -1.791891115  -0.903177805
  C    1.893226576  -1.433250254   0.000000000
  N    1.960083927   0.057790483   0.000000000
  O    1.962260381   0.618798181  -1.081655739
  O    1.962260381   0.618798181   1.081655739

7.009_noHB__ammonia--nitromethane_150.wfx

