%nprocs=4
%mem=2GB
#p hf aug-cc-pvdz output=wfx scf=(conver=6) int=(grid=ultrafine)

title

0 1
  N    2.314242557  -0.073479079   0.000000000
  H    2.909570082  -0.162864261   0.813768998
  H    2.909570082  -0.162864261  -0.813768998
  H    1.687909075  -0.869930873   0.000000000
  H    0.669072331   1.397132555   0.000000000
  H   -0.852224429   1.678672850   0.886529949
  H   -0.852224429   1.678672850  -0.886529949
  C   -0.795278445  -1.320909140   0.000000000
  N   -0.646292781  -0.167948378   0.000000000
  C   -0.406996408   1.231936395   0.000000000

7.008_noHB__ammonia--methylisocyanide_085.wfx

