%nprocs=4
%mem=2GB
#p hf aug-cc-pvdz output=wfx scf=(conver=6) int=(grid=ultrafine)

title

0 1
H       -0.8233307780        -0.9656657300         2.1401902180
C       -1.1665462960        -0.5495693810         1.2028290730
C       -0.7172700510        -1.1076694430         0.0000000000
C       -2.0310425980         0.5340725470         1.1979022570
C       -1.1665462960        -0.5495693810        -1.2028290730
N        0.1328872270        -2.2051583970         0.0000000000
C       -2.4689095820         1.0902346940         0.0000000000
H       -2.3611925790         0.9505480710         2.1394232780
H       -0.8233307780        -0.9656657300        -2.1401902180
C       -2.0310425980         0.5340725470        -1.1979022570
H        0.6950682580        -2.3026502070        -0.8299054930
H        0.6950682580        -2.3026502070         0.8299054930
H       -3.1421586180         1.9345505810         0.0000000000
H       -2.3611925790         0.9505480710        -2.1394232780

7.015_noHB__aniline--nitromethane_1.wfx

