%nprocs=4
%mem=2GB
#p hf aug-cc-pvdz output=wfx scf=(conver=6) int=(grid=ultrafine)

title

0 1
  H   -0.135622074  -0.574959019   2.054292583
  H    2.785560759   1.973357746   0.224019735
  H    1.357705580   1.374526154   2.162618499
  H    1.199750872  -1.372997801  -1.933025804
  H   -1.263274849  -2.128372605   0.532318652
  H    2.694979180   0.573527581  -1.821417073
  H   -0.587694598  -2.580758787  -0.913837830
  C    2.128831326   1.117453391   0.175858954
  C    1.327086928   0.777616703   1.261451981
  C    0.484928814  -0.321068032   1.206235883
  C    0.421352789  -1.113029399   0.052477100
  C    1.234403562  -0.771185134  -1.034250872
  C    2.076893619   0.329357387  -0.968498955
  N   -0.405477130  -2.227380428   0.011106247
  H   -0.095631433   1.348305533  -0.849816120
  H   -0.997059395   2.378289471   0.265657099
  H   -1.585512036   2.153449584  -1.390860915
  C   -1.092672235   1.666270177  -0.551415867
  C   -1.866359826   0.515948781  -0.117882287
  N   -2.470535111  -0.399936739   0.222313055

7.011_noHB__aniline--acetonitrile_080.wfx

