%nprocs=4
%mem=2GB
#p hf aug-cc-pvdz output=wfx scf=(conver=6) int=(grid=ultrafine)

title

0 1
C       -2.2024374200        -1.1216400540        -0.5475987220
H       -2.5017132870        -2.0455288690        -1.0218053720
C       -1.9791708540         0.0145884760        -1.3186923150
C       -2.0398592710        -1.0682029320         0.8321233020
H       -2.1043684980        -0.0265311240        -2.3912952190
C       -1.5945798870         1.2037115980        -0.7081110830
C       -1.6544562620         0.1203205970         1.4418041280
H       -2.2102879520        -1.9515439900         1.4308443060
H       -1.4224370090         2.0870191440        -1.3066808940
C       -1.4323071010         1.2559484430         0.6722507950
H       -1.5230201040         0.1596859280         2.5135773640
H       -1.1297887690         2.1790674620         1.1455286720

7.019_noHB__benzene--acetamide_1.wfx

