%nprocs=4
%mem=2GB
#p hf aug-cc-pvdz output=wfx scf=(conver=6) int=(grid=ultrafine)

title

0 1
  N   -2.535701752  -0.201957374  -0.066761933
  H   -2.899054292  -0.872559294  -0.732356396
  H   -3.272024441  -0.021772274   0.604022398
  H   -1.775956035  -0.653369578   0.430693626
  H   -0.803988807   1.294010565  -0.532048915
  H    0.188344621   1.767263564   0.836281635
  H    0.990644126   1.480091243  -0.756667469
  C    0.185912920   1.183890359  -0.086236575
  N    0.300775449  -0.230321649   0.310460052
  O    1.246074442  -0.804563447  -0.154331027

7.010_noHB__ammonia--nitrosomethane_085.wfx

