%nprocs=4
%mem=2GB
#p hf aug-cc-pvdz output=wfx scf=(conver=6) int=(grid=ultrafine)

title

0 1
  H   -1.019273764   1.272314830  -2.016866544
  H   -2.828683147  -1.955390862   0.144450461
  H   -2.524865220  -0.668266712  -1.953850619
  H   -0.087270244   0.678817544   2.119899017
  H    0.732671148   2.477271477  -0.891313729
  H   -1.599360364  -1.256135581   2.181871130
  H    1.135762274   2.209559122   0.700827789
  C   -2.167364517  -1.102092551   0.118372865
  C   -1.995944372  -0.376370888  -1.057236599
  C   -1.148703642   0.718954141  -1.096095492
  C   -0.446060148   1.114944554   0.047884849
  C   -0.626948059   0.387405928   1.229738478
  C   -1.479891518  -0.705195043   1.259539353
  N    0.393740789   2.218375719   0.020205992
  H    4.511112881  -3.558212295  -0.696057361
  H    2.978184697  -2.696358664  -0.607703567
  H    4.198560674  -2.192844057  -1.836685230
  C    4.039051685  -2.584038954  -0.833532699
  N    4.607623240  -1.694871280   0.194480528
  O    5.140912014  -0.708713250  -0.244398567

7.016_noHB__aniline--nitrosomethane_200.wfx

