%nprocs=4
%mem=2GB
#p hf aug-cc-pvdz output=wfx scf=(conver=6) int=(grid=ultrafine)

title

0 1
H        2.1935959930         2.2090413890         0.8822534340
C        1.7836536550         1.4951015460         0.1641271810
C        2.3180673560         0.1288756260         0.4646480960
H        2.0340083870         1.7968808340        -0.8490799580
H        0.7010253070         1.4939510350         0.2989837130
H        2.0986151610        -0.2425090030         1.4858657060
O        2.9442300990        -0.5527938420        -0.3049966310

7.018_noHB__benzene--acetaldehyde_2.wfx

