%nprocs=4
%mem=2GB
#p hf aug-cc-pvdz output=wfx scf=(conver=6) int=(grid=ultrafine)

title

0 1
H       -0.1356220740        -0.5749590190         2.0542925830
C        0.4849288140        -0.3210680320         1.2062358830
C        0.4213527890        -1.1130293990         0.0524771000
C        1.3270869280         0.7776167030         1.2614519810
N       -0.4054771300        -2.2273804280         0.0111062470
C        1.2344035620        -0.7711851340        -1.0342508720
H        1.3577055800         1.3745261540         2.1626184990
C        2.1288313260         1.1174533910         0.1758589540
H       -0.5876945980        -2.5807587870        -0.9138378300
H       -1.2632748490        -2.1283726050         0.5323186520
H        1.1997508720        -1.3729978010        -1.9330258040
C        2.0768936190         0.3293573870        -0.9684989550
H        2.7855607590         1.9733577460         0.2240197350
H        2.6949791800         0.5735275810        -1.8214170730

7.011_noHB__aniline--acetonitrile_1.wfx

