%nprocs=4
%mem=2GB
#p hf aug-cc-pvdz output=wfx scf=(conver=6) int=(grid=ultrafine)

title

0 1
H        0.4458949700        -0.6893890340        -1.5055422570
C       -0.4134922640        -0.4499292220        -0.8952269240
C       -1.3860768510        -1.4090757380        -0.6538504760
C       -0.5333548160         0.8314196210        -0.3478415240
C       -2.4977891110        -1.1158756120         0.1274277350
H       -1.2744474450        -2.3930771650        -1.0877439210
C       -1.6544225780         1.1245008090         0.4355277550
N        0.4770835880         1.7763404690        -0.5143901580
H       -3.2541058380        -1.8649265120         0.3092360170
C       -2.6239823730         0.1601660020         0.6648967940
H       -1.7579482480         2.1111298250         0.8681035790
H        1.1291573890         1.5927871750        -1.2588886670
H        0.1850953980         2.7384585840        -0.4839570790
H       -3.4840727500         0.4089933670         1.2708854240

7.014_noHB__aniline--methylisocyanide_1.wfx

