%nprocs=4
%mem=2GB
#p hf aug-cc-pvdz output=wfx scf=(conver=6) int=(grid=ultrafine)

title

0 1
H        3.9627237410        -1.0666723720         0.9484268450
C        3.2021503540        -0.6490825700         0.3132816760
C        2.1319751720        -1.3458067580        -0.3376759850
C        3.0751822990         0.6529688010        -0.0395163520
H        1.9102547460        -2.3964630280        -0.2873862740
C        1.4390952510        -0.4131715260        -1.0331427910
O        2.0010623140         0.8147870190        -0.8624563370
H        3.6381137490         1.5399282080         0.1827035340
H        0.5525977250        -0.4465367810        -1.6370873500

7.012_noHB__aniline--furan_2.wfx

