%nprocs=4
%mem=2GB
#p hf aug-cc-pvdz output=wfx scf=(conver=6) int=(grid=ultrafine)

title

0 1
N       -2.5357017520        -0.2019573740        -0.0667619330
H       -2.8990542920        -0.8725592940        -0.7323563960
H       -3.2720244410        -0.0217722740         0.6040223980
H       -1.7759560350        -0.6533695780         0.4306936260

7.010_noHB__ammonia--nitrosomethane_1.wfx

