%nprocs=4
%mem=2GB
#p hf aug-cc-pvdz output=wfx scf=(conver=6) int=(grid=ultrafine)

title

0 1
  H   -1.019273764   1.272314830  -2.016866544
  H   -2.828683147  -1.955390862   0.144450461
  H   -2.524865220  -0.668266712  -1.953850619
  H   -0.087270244   0.678817544   2.119899017
  H    0.732671148   2.477271477  -0.891313729
  H   -1.599360364  -1.256135581   2.181871130
  H    1.135762274   2.209559122   0.700827789
  C   -2.167364517  -1.102092551   0.118372865
  C   -1.995944372  -0.376370888  -1.057236599
  C   -1.148703642   0.718954141  -1.096095492
  C   -0.446060148   1.114944554   0.047884849
  C   -0.626948059   0.387405928   1.229738478
  C   -1.479891518  -0.705195043   1.259539353
  N    0.393740789   2.218375719   0.020205992
  H    1.654192853  -2.528620582  -0.497905637
  H    0.121264669  -1.666766951  -0.409551843
  H    1.341640646  -1.163252344  -1.638533506
  C    1.182131657  -1.554447241  -0.635380975
  N    1.750703212  -0.665279567   0.392632252
  O    2.283991986   0.320878463  -0.046246843

7.016_noHB__aniline--nitrosomethane_085.wfx

