%nprocs=4
%mem=2GB
#p hf aug-cc-pvdz output=wfx scf=(conver=6) int=(grid=ultrafine)

title

0 1
C       -1.9612956210         0.8985716940        -0.6148545440
C       -1.2226080900         0.0403642290        -1.4220076810
H       -2.4555377460         1.7566337370        -1.0482142510
C       -2.0622884140         0.6544013400         0.7501821660
C       -0.5856663650        -1.0619719600        -0.8653428810
H       -1.1391196290         0.2334066380        -2.4820863180
C       -1.4266430040        -0.4500187360         1.3068774840
H       -2.6356842320         1.3218159860         1.3779641230
C       -0.6897560820        -1.3082316020         0.4988301960
H        0.0020058380        -1.7201443770        -1.4884403690
H       -1.5063709550        -0.6414438800         2.3677622970
H       -0.1917169650        -2.1647178410         0.9304966790

7.018_noHB__benzene--acetaldehyde_1.wfx

