%nprocs=4
%mem=2GB
#p hf aug-cc-pvdz output=wfx scf=(conver=6) int=(grid=ultrafine)

title

0 1
C       -0.4822504200         0.0000000220         0.0015426240
H       -1.5641303070         0.0000000770         0.0021540950
C        0.2177876990        -1.2017987130         0.0009567910
C        0.2177877340         1.2017987990         0.0009567830
C        1.6080778120        -1.2033632800        -0.0004495700
H       -0.3225028380        -2.1384833970         0.0016165130
C        1.6080778840         1.2033632060        -0.0004495630
H       -0.3225026210         2.1384836590         0.0016164910
H        2.1486422850        -2.1397574690        -0.0009628800
C        2.3041561860        -0.0000000550        -0.0012473250
H        2.1486424600         2.1397573660        -0.0009628550
H        3.3852694060         0.0000001550        -0.0024961780

7.023_noHB__benzene--ammonia_1.wfx

