%nprocs=4
%mem=2GB
#p hf aug-cc-pvdz output=wfx scf=(conver=6) int=(grid=ultrafine)

title

0 1
  C    0.417359343  -0.000000000  -0.610410277
  H   -0.590634950  -0.000000000  -1.002511855
  C    1.065306032  -1.202179129  -0.348273342
  H    0.563729505  -2.138471542  -0.550394773
  C    2.354439939  -1.203550279   0.172239958
  H    2.855731466  -2.139856269   0.374519481
  C    2.999534664  -0.000000000   0.432939285
  H    4.001830681  -0.000000000   0.837989824
  C    2.354439939   1.203550279   0.172239958
  H    2.855731466   2.139856269   0.374519481
  C    1.065306032   1.202179129  -0.348273342
  H    0.563729505   2.138471542  -0.550394773
  H   -1.571080393   1.272463147   0.857611482
  H   -3.309284375   1.261835056   1.180285466
  H   -2.667940407   2.085479228  -0.256148536
  H   -3.469552010   0.000000000  -0.969645215
  H   -2.667940407  -2.085479228  -0.256148536
  H   -1.571080393  -1.272463147   0.857611482
  H   -3.309284375  -1.261835056   1.180285466
  C   -2.551761811   1.212508706   0.384399087
  N   -2.624260353   0.000000000  -0.416294656
  C   -2.551761811  -1.212508706   0.384399087

7.025_noHB__benzene--dimethylamine_085.wfx

