%nprocs=4
%mem=2GB
#p hf aug-cc-pvdz output=wfx scf=(conver=6) int=(grid=ultrafine)

title

0 1
  C    2.448356502   0.772362747   0.674600068
  H    2.979546032   1.515953116   1.251864667
  C    2.198073574   0.988297597  -0.675772366
  H    2.533955216   1.900644229  -1.148205585
  C    1.512188193   0.033745112  -1.417116692
  H    1.309038143   0.205251646  -2.464524387
  C    1.077960357  -1.137698646  -0.809421467
  H    0.536244475  -1.874498046  -1.384759494
  C    1.332588276  -1.356666565   0.539165969
  H    0.997458833  -2.269421539   1.011438517
  C    2.016389124  -0.401090527   1.282214081
  H    2.212037076  -0.570249516   2.331710587
  H   -0.539144326   1.871722845  -0.726568222
  H   -0.933443546   2.399487410   0.930396222
  H    0.007363175   0.907516745   0.669170385
  H   -1.849755020  -2.269169388  -0.433956560
  H   -2.877544250  -1.488921904   0.796348912
  H   -1.096014261  -1.432720909   0.946160319
  C   -0.792572932   1.537014213   0.279690714
  O   -2.041400731   0.868463886   0.294782444
  O   -1.906823500  -0.281193047  -0.581387006
  C   -1.935908220  -1.424260132   0.248913829

7.029_noHB__benzene--dimethylperoxide_080.wfx

