%nprocs=4
%mem=2GB
#p hf aug-cc-pvdz output=wfx scf=(conver=6) int=(grid=ultrafine)

title

0 1
C        2.1321544000        -1.4023467680        -0.2263336620
H        2.2084220620        -2.4794854420        -0.1775821840
C        1.3898192100        -0.8043226970        -1.2374911490
C        2.7649302150        -0.6169793930         0.7290089640
H        0.8790215440        -1.4158379220        -1.9668883640
C        1.2808892360         0.5781571760        -1.2933610650
C        2.6561700450         0.7683485660         0.6720026550
H        3.3398507920        -1.0822564170         1.5176238680
H        0.6847371970         1.0430426560        -2.0647259720
C        1.9146680620         1.3654264660        -0.3397119130
H        3.1477590230         1.3797925610         1.4161154200
H        1.8157151200         2.4407138000        -0.3791094800

7.024_noHB__benzene--aniline_1.wfx

