%nprocs=4
%mem=2GB
#p hf aug-cc-pvdz output=wfx scf=(conver=6) int=(grid=ultrafine)

title

0 1
  C    1.891604494  -0.118137285   1.390796024
  H    1.888800948  -0.116062125   2.471540277
  C    1.147275331  -1.065885534   0.696148644
  H    0.555584665  -1.794615009   1.230448047
  C    1.147275331  -1.065885534  -0.696148644
  H    0.555584665  -1.794615009  -1.230448047
  C    1.891604494  -0.118137285  -1.390796024
  H    1.888800948  -0.116062125  -2.471540277
  C    2.632913580   0.830141372  -0.695095730
  H    3.206885678   1.569668391  -1.235214813
  C    2.632913580   0.830141372   0.695095730
  H    3.206885678   1.569668391   1.235214813
  H   -0.243883128   0.403235311  -0.000000000
  H   -3.509592381   1.359789852  -0.877095109
  H   -3.509592381   1.359789852   0.877095109
  H   -4.224488984  -0.016168178  -0.000000000
  O   -1.931361555  -1.169382068  -0.000000000
  C   -2.095271369   0.024031528  -0.000000000
  O   -1.076025106   0.905951920  -0.000000000
  C   -3.427849010   0.719221132  -0.000000000

7.020_noHB__benzene--aceticacid_085.wfx

