%nprocs=4
%mem=2GB
#p hf aug-cc-pvdz output=wfx scf=(conver=6) int=(grid=ultrafine)

title

0 1
C        2.4483565020         0.7723627470         0.6746000680
C        2.0163891240        -0.4010905270         1.2822140810
C        2.1980735740         0.9882975970        -0.6757723660
H        2.9795460320         1.5159531160         1.2518646670
H        2.2120370760        -0.5702495160         2.3317105870
C        1.3325882760        -1.3566665650         0.5391659690
C        1.5121881930         0.0337451120        -1.4171166920
H        2.5339552160         1.9006442290        -1.1482055850
C        1.0779603570        -1.1376986460        -0.8094214670
H        0.9974588330        -2.2694215390         1.0114385170
H        1.3090381430         0.2052516460        -2.4645243870
H        0.5362444750        -1.8744980460        -1.3847594940

7.029_noHB__benzene--dimethylperoxide_1.wfx

