%nprocs=4
%mem=2GB
#p hf aug-cc-pvdz output=wfx scf=(conver=6) int=(grid=ultrafine)

title

0 1
  C    1.891604494  -0.118137285   1.390796024
  H    1.888800948  -0.116062125   2.471540277
  C    1.147275331  -1.065885534   0.696148644
  H    0.555584665  -1.794615009   1.230448047
  C    1.147275331  -1.065885534  -0.696148644
  H    0.555584665  -1.794615009  -1.230448047
  C    1.891604494  -0.118137285  -1.390796024
  H    1.888800948  -0.116062125  -2.471540277
  C    2.632913580   0.830141372  -0.695095730
  H    3.206885678   1.569668391  -1.235214813
  C    2.632913580   0.830141372   0.695095730
  H    3.206885678   1.569668391   1.235214813
  H   -0.483731094   0.418162234  -0.000000000
  H   -3.749440347   1.374716775  -0.877095109
  H   -3.749440347   1.374716775   0.877095109
  H   -4.464336950  -0.001241255  -0.000000000
  O   -2.171209521  -1.154455145  -0.000000000
  C   -2.335119335   0.038958451  -0.000000000
  O   -1.315873072   0.920878843  -0.000000000
  C   -3.667696976   0.734148055  -0.000000000

7.020_noHB__benzene--aceticacid_095.wfx

