%nprocs=4
%mem=2GB
#p hf aug-cc-pvdz output=wfx scf=(conver=6) int=(grid=ultrafine)

title

0 1
H       -1.8285781910        -1.6961085760        -1.7059728410
C       -1.3570529530        -1.6860897420        -0.7217639650
H       -0.3663399180        -1.2413226260        -0.7955245900
H       -1.2639581450        -2.7056029100        -0.3650718590
N       -2.1924163420        -0.9725812260         0.2585696480
N       -2.4016830090         0.2093551420         0.0311143860
N       -2.6597228250         1.3048970170        -0.0735590470

7.034_noHB__benzene--methylazide_2.wfx

