%nprocs=4
%mem=2GB
#p hf aug-cc-pvdz output=wfx scf=(conver=6) int=(grid=ultrafine)

title

0 1
N        3.4453632840        -0.6213817000        -0.1806029600
H        4.2366768560        -0.6655599520        -0.8084140590
H        3.5745402670        -1.3512291150         0.5073867680
C        3.3598144580         0.6906735910         0.4630192010
H        3.2252404670         1.4553383680        -0.3011396450
H        2.4807768300         0.7178310360         1.1050802780
H        4.2317179180         0.9661612260         1.0665753640

7.033_noHB__benzene--methylamine_2.wfx

