%nprocs=4
%mem=2GB
#p hf aug-cc-pvdz output=wfx scf=(conver=6) int=(grid=ultrafine)

title

0 1
  C    2.047431404  -0.891219532  -0.514382104
  H    2.591526914  -1.741824451  -0.900196316
  C    1.991562470  -0.665123736   0.856630170
  H    2.492037268  -1.340005461   1.536665921
  C    1.292064296   0.429821191   1.352158661
  H    1.246250943   0.604565520   2.417801092
  C    0.648004694   1.297042135   0.477772988
  H    0.094470980   2.141287556   0.862938515
  C    0.702326949   1.070269624  -0.892405485
  H    0.190606508   1.737448190  -1.570659521
  C    1.402447258  -0.023251761  -1.388585423
  H    1.441296473  -0.201033631  -2.453893550
  H   -0.136059209  -1.303386453   0.020048945
  H   -1.643393736  -2.203324068  -0.104127790
  H   -1.347130341  -1.169866074   1.349319421
  C   -1.194955584  -1.285023646   0.277735963
  N   -1.797673420  -0.173941277  -0.481776103
  O   -2.325899078   0.660057200   0.200733424

7.038_noHB__benzene--nitrosomethane_080.wfx

