%nprocs=4
%mem=2GB
#p hf aug-cc-pvdz output=wfx scf=(conver=6) int=(grid=ultrafine)

title

0 1
C        1.7750853950         1.3890891700        -0.2284846770
C        1.0815008240         0.6944543960        -1.2126186100
H        1.7738891090         2.4702417410        -0.2279557800
C        2.4642225950         0.6951843080         0.7580933330
C        1.0815008240        -0.6944543960        -1.2126186100
H        0.5345895940         1.2336205590        -1.9723125750
C        2.4642225950        -0.6951843080         0.7580933330
H        2.9995932120         1.2355342030         1.5261427370
C        1.7750853950        -1.3890891700        -0.2284846770
H        0.5345895940        -1.2336205590        -1.9723125750
H        2.9995932120        -1.2355342030         1.5261427370
H        1.7738891090        -2.4702417410        -0.2279557800

7.030_noHB__benzene--furan_1.wfx

