%nprocs=4
%mem=2GB
#p hf aug-cc-pvdz output=wfx scf=(conver=6) int=(grid=ultrafine)

title

0 1
  C    0.520765291   0.900082305  -1.012859620
  H   -0.073027854   1.430276323  -1.743118987
  C    1.241512116  -0.228221216  -1.385041431
  H    1.219301526  -0.569177066  -2.410633666
  C    1.990744666  -0.919846932  -0.438897883
  H    2.551860679  -1.797016178  -0.729072064
  C    2.019423081  -0.480879461   0.879674038
  H    2.602745913  -1.016346919   1.615517403
  C    1.298445848   0.649654872   1.251494929
  H    1.319957642   0.990939734   2.276905238
  C    0.549032482   1.339319358   0.305631698
  H   -0.023232499   2.208554044   0.595181244
  H   -2.029287841  -1.980793357   1.060554495
  H   -0.531397034  -1.076462740   0.744797840
  H   -1.352710365  -1.916549750  -0.578269559
  C   -2.851764613   0.785938608  -0.148333081
  N   -2.259212173  -0.189180555   0.074502594
  C   -1.501336533  -1.357111579   0.342257605

7.036_noHB__benzene--methylisocyanide_090.wfx

