%nprocs=4
%mem=2GB
#p hf aug-cc-pvdz output=wfx scf=(conver=6) int=(grid=ultrafine)

title

0 1
H       -3.1642804190         1.3691974110        -1.1879196880
C       -2.6397764140         0.7161999480        -0.5137746230
C       -2.6397764140        -0.7161999480        -0.5137746230
C       -1.8379403470         1.0929270930         0.5114092950
H       -3.1642804190        -1.3691974110        -1.1879196880
C       -1.8379403470        -1.0929270930         0.5114092950
H       -1.5257486810         2.0448212320         0.8964704980
O       -1.3436848610         0.0000000000         1.1506779470
H       -1.5257486810        -2.0448212320         0.8964704980

7.030_noHB__benzene--furan_2.wfx

