%nprocs=4
%mem=2GB
#p hf aug-cc-pvdz output=wfx scf=(conver=6) int=(grid=ultrafine)

title

0 1
H        3.0518559740        -2.2789836100        -0.1933403990
C        2.8449150390        -1.3326090760         0.2948315010
O        2.1159018220        -0.5533545630        -0.6605695670
H        2.2488829260        -1.4885930030         1.1917888780
H        3.7712583390        -0.8338984270         0.5708317870
C        1.7569340680         0.6832212940        -0.2559183590
C        0.9460598830         1.3811718210        -1.3079454720
O        2.0537245710         1.1338815950         0.8204583050
H        0.8029567570         2.4184979690        -1.0264437600
H        1.4374943130         1.3128733550        -2.2763959750
H       -0.0230195760         0.8911705260        -1.3902550060

7.032_noHB__benzene--methylacetate_2.wfx

