%nprocs=4
%mem=2GB
#p hf aug-cc-pvdz output=wfx scf=(conver=6) int=(grid=ultrafine)

title

0 1
H        0.3460416890        -1.0966206950        -0.8005636030
C        1.2986061400        -1.6141120410        -0.7751895020
H        1.7987910130        -1.5662891080        -1.7390034580
H        1.1730820280        -2.6413421460        -0.4562417520
O        2.1561084710        -1.0075564480         0.2396779030
C        2.4452838610         0.2286732830         0.0614504490
N        2.7325451220         1.3406259450        -0.0604016790

7.035_noHB__benzene--methylcyanate_2.wfx

