%nprocs=4
%mem=2GB
#p hf aug-cc-pvdz output=wfx scf=(conver=6) int=(grid=ultrafine)

title

0 1
C        0.9407808210        -1.2359828040         0.6951857840
C        0.9407808210        -1.2359828040        -0.6951857840
H        0.8895249850        -2.1706799430         1.2352498290
C        1.0005874890        -0.0344446610         1.3906945400
H        0.8895249850        -2.1706799430        -1.2352498290
C        1.0005874890        -0.0344446610        -1.3906945400
H        0.9942893350        -0.0335742840         2.4712661320
C        1.0636582250         1.1690345470         0.6956096180
H        0.9942893350        -0.0335742840        -2.4712661320
C        1.0636582250         1.1690345470        -0.6956096180
H        1.1074692410         2.1037879080         1.2359847640
H        1.1074692410         2.1037879080        -1.2359847640

7.031_noHB__benzene--methanol_1.wfx

