%nprocs=4
%mem=2GB
#p hf aug-cc-pvdz output=wfx scf=(conver=6) int=(grid=ultrafine)

title

0 1
  C    2.047431404  -0.891219532  -0.514382104
  H    2.591526914  -1.741824451  -0.900196316
  C    1.991562470  -0.665123736   0.856630170
  H    2.492037268  -1.340005461   1.536665921
  C    1.292064296   0.429821191   1.352158661
  H    1.246250943   0.604565520   2.417801092
  C    0.648004694   1.297042135   0.477772988
  H    0.094470980   2.141287556   0.862938515
  C    0.702326949   1.070269624  -0.892405485
  H    0.190606508   1.737448190  -1.570659521
  C    1.402447258  -0.023251761  -1.388585423
  H    1.441296473  -0.201033631  -2.453893550
  H   -0.557620003  -1.366827110   0.025718874
  H   -2.064954530  -2.266764725  -0.098457861
  H   -1.768691135  -1.233306731   1.354989350
  C   -1.616516378  -1.348464303   0.283405892
  N   -2.219234214  -0.237381934  -0.476106174
  O   -2.747459872   0.596616543   0.206403353

7.038_noHB__benzene--nitrosomethane_095.wfx

