%nprocs=4
%mem=2GB
#p hf aug-cc-pvdz output=wfx scf=(conver=6) int=(grid=ultrafine)

title

0 1
  C    1.775085395   1.389089170  -0.228484677
  H    1.773889109   2.470241741  -0.227955780
  C    2.464222595   0.695184308   0.758093333
  H    2.999593212   1.235534203   1.526142737
  C    2.464222595  -0.695184308   0.758093333
  H    2.999593212  -1.235534203   1.526142737
  C    1.775085395  -1.389089170  -0.228484677
  H    1.773889109  -2.470241741  -0.227955780
  C    1.081500824  -0.694454396  -1.212618610
  H    0.534589594  -1.233620559  -1.972312575
  C    1.081500824   0.694454396  -1.212618610
  H    0.534589594   1.233620559  -1.972312575
  H   -3.333584677   1.369197411  -1.166204672
  H   -3.333584677  -1.369197411  -1.166204672
  H   -1.695052939   2.044821232   0.918185514
  H   -1.695052939  -2.044821232   0.918185514
  C   -2.809080672  -0.716199948  -0.492059607
  C   -2.809080672   0.716199948  -0.492059607
  C   -2.007244605   1.092927093   0.533124311
  O   -1.512989119  -0.000000000   1.172392963
  C   -2.007244605  -1.092927093   0.533124311

7.030_noHB__benzene--furan_105.wfx

