%nprocs=4
%mem=2GB
#p hf aug-cc-pvdz output=wfx scf=(conver=6) int=(grid=ultrafine)

title

0 1
C        2.0211019520        -1.7547996600         0.2773758570
H        1.9265857420        -2.2423330450        -0.6921336750
C        2.2748312900        -0.2776744790         0.0533284190
H        1.1255907070        -1.9549885300         0.8608167580
H        2.8863492550        -2.1832453370         0.7780418000
N        1.2820443440         0.5561161990         0.4549827140
O        3.3100283050         0.1269009030        -0.4500257390
H        0.4032584880         0.1609465450         0.7394888930
C        1.3476693400         1.9827979730         0.2188751520
H        1.0833077890         2.2382613990        -0.8095647430
H        0.6601799380         2.4875285860         0.8926387040
H        2.3599226430         2.3310818360         0.4039631950

7.040_noHB__benzene--Nmethylacetamide_2.wfx

