%nprocs=4
%mem=2GB
#p hf aug-cc-pvdz output=wfx scf=(conver=6) int=(grid=ultrafine)

title

0 1
C       -2.5882945610        -0.1439816750         1.3912982660
H       -2.5823198040        -0.1435268370         2.4717460230
C       -2.5727390360        -1.3463638510         0.6954385690
C       -2.6103674410         1.0608840690         0.6960734560
C       -2.5727390360        -1.3463638510        -0.6954385690
H       -2.5554656510        -2.2822583760         1.2354897680
C       -2.6103674410         1.0608840690        -0.6960734560
H       -2.6287048810         1.9966619610         1.2366156970
C       -2.5882945610        -0.1439816750        -1.3912982660
H       -2.5554656510        -2.2822583760        -1.2354897680
H       -2.6287048810         1.9966619610        -1.2366156970
H       -2.5823198040        -0.1435268370        -2.4717460230

7.041_noHB__benzene--phenol_1.wfx

