%nprocs=4
%mem=2GB
#p hf aug-cc-pvdz output=wfx scf=(conver=6) int=(grid=ultrafine)

title

0 1
H       -1.5929214790        -1.4293238570        -0.7082002690
C       -2.2401918200        -0.5704634520        -0.8830089560
H       -3.2504296200        -0.8360920200        -0.5402123190
H       -2.2773417560        -0.3902581780        -1.9563388290
N       -1.6853045080         0.5950339620        -0.2070417630
H       -2.2108345110         1.4190341010        -0.4657864600
C       -1.6774539490         0.4583775180         1.2434807670
H       -1.0310003820        -0.3727763700         1.5236130560
H       -2.6711778370         0.2636403550         1.6712510340
H       -1.2760793190         1.3626199710         1.6980686290

7.047_noHB__dimethylamine--methylazide_1.wfx

