%nprocs=4
%mem=2GB
#p hf aug-cc-pvdz output=wfx scf=(conver=6) int=(grid=ultrafine)

title

0 1
H        1.6758259530        -1.7719055480         1.4077644100
C        1.5574633160        -0.9604440580         0.7125383430
C        1.2929737860        -1.0504110050        -0.6926911810
C        1.6288471750         0.3623099470         1.0003446590
H        1.1663110570        -1.9440146850        -1.2764711420
C        1.2243502350         0.2238364690        -1.1464828030
O        1.4272111870         1.1007089230        -0.1254754550
H        1.8060812170         0.9160002760         1.9029240090
H        1.0426047640         0.6578665590        -2.1112980930

7.045_noHB__dimethylamine--furan_2.wfx

