%nprocs=4
%mem=2GB
#p hf aug-cc-pvdz output=wfx scf=(conver=6) int=(grid=ultrafine)

title

0 1
  H    1.878184693  -0.556023059   1.215860013
  H    3.409860505   0.479646221   1.233757676
  H    3.409860505   0.479646221  -1.233757676
  H    1.878184693  -0.556023059  -1.215860013
  C    2.645302484  -0.030784164   0.662913324
  C    2.645302484  -0.030784164  -0.662913324
  H   -1.334252098   2.020525670   0.000000000
  H    0.182389953   1.178490050   0.000000000
  H   -3.326888597  -0.542268127  -0.877635186
  H   -3.378174383   0.998639217   0.000000000
  H   -3.326888597  -0.542268127   0.877635186
  O   -0.838307983  -1.099826824   0.000000000
  C   -1.452273566  -0.048225169   0.000000000
  N   -0.825095405   1.157978626   0.000000000
  C   -2.966898331  -0.008835030   0.000000000

7.049_noHB__ethene--acetamide_110.wfx

