%nprocs=4
%mem=2GB
#p hf aug-cc-pvdz output=wfx scf=(conver=6) int=(grid=ultrafine)

title

0 1
  H    1.294018207   0.960871885  -0.637186517
  H    2.916429020   0.424116962  -1.340935199
  H    3.302207939  -0.976804619   0.648103092
  H    1.685569311  -0.428395564   1.338983622
  C    2.194953448   0.371451589  -0.536112520
  C    2.405240965  -0.382965144   0.532216837
  H   -1.594769062  -1.612003352  -1.077664214
  H   -1.197490744  -1.915621684   0.599534193
  H    0.052503158  -1.246194832  -0.486828525
  H   -2.542155588   0.215813370   0.400147515
  C   -1.004312608  -1.240134292  -0.237050018
  C   -1.471098686   0.138248967   0.121878462
  O   -0.777049740   1.121628327   0.123777932

7.048_noHB__ethene--acetaldehyde_085.wfx

