%nprocs=4
%mem=2GB
#p hf aug-cc-pvdz output=wfx scf=(conver=6) int=(grid=ultrafine)

title

0 1
  H    1.878184693  -0.556023059   1.215860013
  H    3.409860505   0.479646221   1.233757676
  H    3.409860505   0.479646221  -1.233757676
  H    1.878184693  -0.556023059  -1.215860013
  C    2.645302484  -0.030784164   0.662913324
  C    2.645302484  -0.030784164  -0.662913324
  H   -1.206301740   2.018985096   0.000000000
  H    0.310340311   1.176949476   0.000000000
  H   -3.198938239  -0.543808701  -0.877635186
  H   -3.250224025   0.997098643   0.000000000
  H   -3.198938239  -0.543808701   0.877635186
  O   -0.710357625  -1.101367398   0.000000000
  C   -1.324323208  -0.049765743   0.000000000
  N   -0.697145047   1.156438052   0.000000000
  C   -2.838947973  -0.010375604   0.000000000

7.049_noHB__ethene--acetamide_105.wfx

