%nprocs=4
%mem=2GB
#p hf aug-cc-pvdz output=wfx scf=(conver=6) int=(grid=ultrafine)

title

0 1
H        3.1168410420         2.1714180690         0.0000000000
C        2.8514507200         1.1243136310         0.0000000000
C        1.5050259460         0.7691447200         0.0000000000
C        3.8228128120         0.1343519330         0.0000000000
C        1.1384393660        -0.5744283600         0.0000000000
O        0.5854064560         1.7743321530         0.0000000000
C        3.4669416650        -1.2104903830         0.0000000000
H        4.8663426980         0.4167793800         0.0000000000
H        0.0921816550        -0.8458820830         0.0000000000
C        2.1214544390        -1.5557021640         0.0000000000
H       -0.3051203470         1.4035058930         0.0000000000
H        4.2279174120        -1.9769770250         0.0000000000
H        1.8291471590        -2.5966562760         0.0000000000

7.041_noHB__benzene--phenol_2.wfx

