%nprocs=4
%mem=2GB
#p hf aug-cc-pvdz output=wfx scf=(conver=6) int=(grid=ultrafine)

title

0 1
  C   -0.833970869   0.000000000  -1.319936693
  C   -0.724635598   1.204508501  -0.633985652
  C   -0.506681300   1.204918448   0.738905466
  C   -0.397974335  -0.000000000   1.425854240
  C   -0.506681300  -1.204918448   0.738905466
  C   -0.724635598  -1.204508501  -0.633985652
  H   -0.806583311  -2.140498259  -1.167870455
  H   -0.417648115  -2.140596201   1.272010734
  H   -0.229098933  -0.000000000   2.493412362
  H   -0.417648115   2.140596201   1.272010734
  H   -0.806583311   2.140498259  -1.167870455
  H   -1.005027820   0.000000000  -2.387277997
  O    2.861108349   0.000000000  -0.219691325
  H    2.517965107   0.000000000  -1.116253577
  H    2.071263990   0.000000000   0.330180199

7.044_noHB__benzene--water_105.wfx

