%nprocs=4
%mem=2GB
#p hf aug-cc-pvdz output=wfx scf=(conver=6) int=(grid=ultrafine)

title

0 1
C       -0.8339708690         0.0000000000        -1.3199366930
C       -0.7246355980        -1.2045085010        -0.6339856520
H       -1.0050278200         0.0000000000        -2.3872779970
C       -0.7246355980         1.2045085010        -0.6339856520
H       -0.8065833110        -2.1404982590        -1.1678704550
C       -0.5066813000        -1.2049184480         0.7389054660
H       -0.8065833110         2.1404982590        -1.1678704550
C       -0.5066813000         1.2049184480         0.7389054660
H       -0.4176481150        -2.1405962010         1.2720107340
C       -0.3979743350         0.0000000000         1.4258542400
H       -0.4176481150         2.1405962010         1.2720107340
H       -0.2290989330         0.0000000000         2.4934123620

7.044_noHB__benzene--water_1.wfx

