%nprocs=4
%mem=2GB
#p hf aug-cc-pvdz output=wfx scf=(conver=6) int=(grid=ultrafine)

title

0 1
H        1.3152408530        -2.0209297180        -0.2814035180
C        2.1931507590        -1.4359138670        -0.0177136980
O        1.8068066440        -0.2041290220         0.6053002200
H        2.7742602190        -1.2438368520        -0.9168415250
H        2.7916413250        -1.9618687930         0.7184095650
C        1.0769653730         0.6366793950        -0.1544549960
O        0.7741907580         0.3969268810        -1.2961678590
C        0.6895996940         1.8667029910         0.6121064230
H        0.4101518590         2.6535890320        -0.0808002630
H        1.4953565130         2.1948440830         1.2636529030
H       -0.1725563580         1.6062757960         1.2253195560

7.046_noHB__dimethylamine--methylacetate_2.wfx

