%nprocs=4
%mem=2GB
#p hf aug-cc-pvdz output=wfx scf=(conver=6) int=(grid=ultrafine)

title

0 1
  H   -1.592921479  -1.429323857  -0.708200269
  H   -3.250429620  -0.836092020  -0.540212319
  H   -2.277341756  -0.390258178  -1.956338829
  H   -2.210834511   1.419034101  -0.465786460
  H   -1.276079319   1.362619971   1.698068629
  H   -1.031000382  -0.372776370   1.523613056
  H   -2.671177837   0.263640355   1.671251034
  C   -2.240191820  -0.570463452  -0.883008956
  N   -1.685304508   0.595033962  -0.207041763
  C   -1.677453949   0.458377518   1.243480767
  H    2.022752689   1.222163921  -1.568470896
  H    0.436833058   1.535187986  -0.807637662
  H    1.903032165   2.367980971  -0.224966423
  C    1.508521277   1.442972575  -0.631082056
  N    1.772448242   0.395789030   0.371032524
  N    1.289219563  -0.702214332   0.142286804
  N    0.896878339  -1.758015971   0.040884047

7.047_noHB__dimethylamine--methylazide_095.wfx

