%nprocs=4
%mem=2GB
#p hf aug-cc-pvdz output=wfx scf=(conver=6) int=(grid=ultrafine)

title

0 1
H       -1.0783513820         2.0174445220         0.0000000000
N       -0.5691946890         1.1548974780         0.0000000000
C       -1.1963728500        -0.0513063170         0.0000000000
H        0.4382906690         1.1754089020         0.0000000000
C       -2.7109976150        -0.0119161780         0.0000000000
O       -0.5824072670        -1.1029079720         0.0000000000
H       -3.0709878810        -0.5453492750        -0.8776351860
H       -3.0709878810        -0.5453492750         0.8776351860
H       -3.1222736670         0.9955580690         0.0000000000

7.049_noHB__ethene--acetamide_2.wfx

