%nprocs=4
%mem=2GB
#p hf aug-cc-pvdz output=wfx scf=(conver=6) int=(grid=ultrafine)

title

0 1
  H    1.358096013  -0.597745525  -1.224027174
  H    2.795201164   0.558221776  -1.231654198
  H    2.795201164   0.558221776   1.231654198
  H    1.358096013  -0.597745525   1.224027174
  C    2.075185666  -0.014555720  -0.662325678
  C    2.075185666  -0.014555720   0.662325678
  H   -3.455925940   1.684161657   0.885146583
  H   -1.919108746   1.665412242   0.000000000
  H   -3.455925940   1.684161657  -0.885146583
  C   -2.946858035   1.307047521   0.000000000
  C   -2.950055203  -0.145916801   0.000000000
  N   -2.937221074  -1.294263834   0.000000000

7.052_noHB__ethene--acetonitrile_150.wfx

