%nprocs=4
%mem=2GB
#p hf aug-cc-pvdz output=wfx scf=(conver=6) int=(grid=ultrafine)

title

0 1
H        1.2259211870        -0.9265291510        -1.5886583500
O        1.2142713780        -1.0956454110        -0.6364085250
C        1.1348027860         0.1106807860        -0.0221027550
O        1.0920193200         1.1413101590        -0.6401647360
C        1.0819560270        -0.0263056150         1.4698025110
H        0.0958498350        -0.3980189270         1.7477755430
H        1.8213143800        -0.7439682260         1.8178962790
H        1.2407171840         0.9430244780         1.9290691680

7.050_noHB__ethene--aceticacid_2.wfx

