%nprocs=4
%mem=2GB
#p hf aug-cc-pvdz output=wfx scf=(conver=6) int=(grid=ultrafine)

title

0 1
H       -0.4622644170        -1.2874970630        -0.8195473800
C       -1.4078557650        -1.2141411010        -0.2813385910
H       -2.2190537630        -1.2589703030        -1.0229289680
H       -1.4853442690        -2.0846378900         0.3679481890
N       -1.4156042230         0.0000000000         0.5195986530
C       -1.4078557650         1.2141411010        -0.2813385910
H       -2.2130616950         0.0000000000         1.1397457130
H       -2.2190537630         1.2589703030        -1.0229289680
H       -0.4622644170         1.2874970630        -0.8195473800
H       -1.4853442690         2.0846378900         0.3679481890

7.055_noHB__ethene--dimethylamine_2.wfx

