%nprocs=4
%mem=2GB
#p hf aug-cc-pvdz output=wfx scf=(conver=6) int=(grid=ultrafine)

title

0 1
H       -1.9298937480         1.6729087170         0.8851465830
C       -1.4208258430         1.2957945810         0.0000000000
C       -1.4240230110        -0.1571697410         0.0000000000
H       -1.9298937480         1.6729087170        -0.8851465830
H       -0.3930765540         1.6541593020         0.0000000000
N       -1.4111888820        -1.3055167740         0.0000000000

7.052_noHB__ethene--acetonitrile_2.wfx

