%nprocs=4
%mem=2GB
#p hf aug-cc-pvdz output=wfx scf=(conver=6) int=(grid=ultrafine)

title

0 1
N       -2.4333815040         0.0682335090         0.0000000000
H       -3.1469317910        -0.6495921980         0.0000000000
H       -2.5903037030         0.6474448030        -0.8151364480
H       -2.5903037030         0.6474448030         0.8151364480

7.053_noHB__ethene--ammonia_2.wfx

