%nprocs=4
%mem=2GB
#p hf aug-cc-pvdz output=wfx scf=(conver=6) int=(grid=ultrafine)

title

0 1
  H    1.358096013  -0.597745525  -1.224027174
  H    2.795201164   0.558221776  -1.231654198
  H    2.795201164   0.558221776   1.231654198
  H    1.358096013  -0.597745525   1.224027174
  C    2.075185666  -0.014555720  -0.662325678
  C    2.075185666  -0.014555720   0.662325678
  H   -1.929893748   1.672908717   0.885146583
  H   -0.393076554   1.654159302   0.000000000
  H   -1.929893748   1.672908717  -0.885146583
  C   -1.420825843   1.295794581   0.000000000
  C   -1.424023011  -0.157169741   0.000000000
  N   -1.411188882  -1.305516774   0.000000000

7.052_noHB__ethene--acetonitrile_100.wfx

