%nprocs=4
%mem=2GB
#p hf aug-cc-pvdz output=wfx scf=(conver=6) int=(grid=ultrafine)

title

0 1
  H    1.698527829   1.223267441  -0.626344380
  H    2.934049025   1.231773576   0.742904465
  H    2.934049025  -1.231773576   0.742904465
  H    1.698527829  -1.223267441  -0.626344380
  C    2.315317383   0.662201732   0.062127049
  C    2.315317383  -0.662201732   0.062127049
  H   -2.938181766   1.311048281   1.151892931
  H   -1.888456712   2.139918081  -0.025199221
  H   -1.200459107   1.326929111   1.400239620
  H   -1.888456712  -2.139918081  -0.025199221
  H   -2.938181766  -1.311048281   1.151892931
  C   -1.977472713   1.283068800   0.635613218
  C   -1.838998402   0.000000000  -0.150211026
  O   -1.617965373   0.000000000  -1.338814454
  C   -1.977472713  -1.283068800   0.635613218
  H   -1.200459107  -1.326929111   1.400239620

7.051_noHB__ethene--acetone_125.wfx

