%nprocs=4
%mem=2GB
#p hf aug-cc-pvdz output=wfx scf=(conver=6) int=(grid=ultrafine)

title

0 1
  H   -1.596134586   1.199841276  -0.469964958
  H   -3.235091616   1.216976252   0.369137927
  H   -3.249105111  -1.240606485   0.406596069
  H   -1.612085646  -1.266013701  -0.432329041
  C   -2.417340845   0.640697571  -0.042861476
  C   -2.426117712  -0.683914829  -0.021498909
  H    1.495303929  -0.924112236  -1.585087691
  H    1.510099926   0.945441393   1.932639827
  H    2.090697122  -0.741551311   1.821466938
  H    0.365232577  -0.395602012   1.751346202
  O    1.361402062   1.143727074  -0.636594077
  C    1.404185528   0.113097701  -0.018532096
  O    1.483654120  -1.093228496  -0.632837866
  C    1.351338769  -0.023888700   1.473373170

7.050_noHB__ethene--aceticacid_110.wfx

