%nprocs=4
%mem=2GB
#p hf aug-cc-pvdz output=wfx scf=(conver=6) int=(grid=ultrafine)

title

0 1
H        0.4282222320        -0.9385179110         2.1405490940
C        0.6989883780        -0.4725983160         1.2023551940
C        0.3575644180        -1.0977835410         0.0000000000
C        1.3656459550         0.7428987810         1.1975012080
N       -0.3728497060        -2.2856815060         0.0000000000
C        0.6989883780        -0.4725983160        -1.2023551940
C        1.7044091720         1.3624333160         0.0000000000
H        1.6178717040         1.2109158760         2.1387121630
H       -0.2942648550        -2.8417941810        -0.8348297850
H       -0.2942648550        -2.8417941810         0.8348297850
H        0.4282222320        -0.9385179110        -2.1405490940
C        1.3656459550         0.7428987810        -1.1975012080
H        2.2218897190         2.3102008800         0.0000000000
H        1.6178717040         1.2109158760        -2.1387121630

7.054_noHB__ethene--aniline_2.wfx

