%nprocs=4
%mem=2GB
#p hf aug-cc-pvdz output=wfx scf=(conver=6) int=(grid=ultrafine)

title

0 1
  H   -1.596134586   1.199841276  -0.469964958
  H   -3.235091616   1.216976252   0.369137927
  H   -3.249105111  -1.240606485   0.406596069
  H   -1.612085646  -1.266013701  -0.432329041
  C   -2.417340845   0.640697571  -0.042861476
  C   -2.426117712  -0.683914829  -0.021498909
  H    1.225921187  -0.926529151  -1.588658350
  H    1.240717184   0.943024478   1.929069168
  H    1.821314380  -0.743968226   1.817896279
  H    0.095849835  -0.398018927   1.747775543
  O    1.092019320   1.141310159  -0.640164736
  C    1.134802786   0.110680786  -0.022102755
  O    1.214271378  -1.095645411  -0.636408525
  C    1.081956027  -0.026305615   1.469802511

7.050_noHB__ethene--aceticacid_100.wfx

