%nprocs=4
%mem=2GB
#p hf aug-cc-pvdz output=wfx scf=(conver=6) int=(grid=ultrafine)

title

0 1
  H    1.035275086   0.000000000   0.938798971
  H    2.795714630   0.000000000   1.494071783
  H    3.545688909   0.000000000  -0.845065539
  H    1.795970557   0.000000000  -1.408660989
  C    2.086029542   0.000000000   0.676729768
  C    2.495827608   0.000000000  -0.583198709
  H   -0.337966438  -1.287497063  -0.817025830
  H   -2.094755784  -1.258970303  -1.020407418
  H   -1.361046290  -2.084637890   0.370469739
  H   -2.088763716   0.000000000   1.142267263
  H   -1.361046290   2.084637890   0.370469739
  H   -0.337966438   1.287497063  -0.817025830
  H   -2.094755784   1.258970303  -1.020407418
  C   -1.283557786  -1.214141101  -0.278817041
  N   -1.291306244   0.000000000   0.522120203
  C   -1.283557786   1.214141101  -0.278817041

7.055_noHB__ethene--dimethylamine_095.wfx

