%nprocs=4
%mem=2GB
#p hf aug-cc-pvdz output=wfx scf=(conver=6) int=(grid=ultrafine)

title

0 1
  H   -1.596134586   1.199841276  -0.469964958
  H   -3.235091616   1.216976252   0.369137927
  H   -3.249105111  -1.240606485   0.406596069
  H   -1.612085646  -1.266013701  -0.432329041
  C   -2.417340845   0.640697571  -0.042861476
  C   -2.426117712  -0.683914829  -0.021498909
  H    1.360612558  -0.925320694  -1.586873021
  H    1.375408555   0.944232935   1.930854497
  H    1.956005751  -0.742759769   1.819681608
  H    0.230541206  -0.396810470   1.749560872
  O    1.226710691   1.142518616  -0.638379407
  C    1.269494157   0.111889243  -0.020317426
  O    1.348962749  -1.094436954  -0.634623196
  C    1.216647398  -0.025097158   1.471587840

7.050_noHB__ethene--aceticacid_105.wfx

