%nprocs=4
%mem=2GB
#p hf aug-cc-pvdz output=wfx scf=(conver=6) int=(grid=ultrafine)

title

0 1
  H    1.698527829   1.223267441  -0.626344380
  H    2.934049025   1.231773576   0.742904465
  H    2.934049025  -1.231773576   0.742904465
  H    1.698527829  -1.223267441  -0.626344380
  C    2.315317383   0.662201732   0.062127049
  C    2.315317383  -0.662201732   0.062127049
  H   -1.615750476   1.311048281   1.187059898
  H   -0.566025422   2.139918081   0.009967746
  H    0.121972183   1.326929111   1.435406587
  H   -0.566025422  -2.139918081   0.009967746
  H   -1.615750476  -1.311048281   1.187059898
  C   -0.655041423   1.283068800   0.670780185
  C   -0.516567112  -0.000000000  -0.115044059
  O   -0.295534083  -0.000000000  -1.303647487
  C   -0.655041423  -1.283068800   0.670780185
  H    0.121972183  -1.326929111   1.435406587

7.051_noHB__ethene--acetone_080.wfx

