%nprocs=4
%mem=2GB
#p hf aug-cc-pvdz output=wfx scf=(conver=6) int=(grid=ultrafine)

title

0 1
  H    1.358096013  -0.597745525  -1.224027174
  H    2.795201164   0.558221776  -1.231654198
  H    2.795201164   0.558221776   1.231654198
  H    1.358096013  -0.597745525   1.224027174
  C    2.075185666  -0.014555720  -0.662325678
  C    2.075185666  -0.014555720   0.662325678
  H   -1.319480871   1.668407541   0.885146583
  H    0.217336323   1.649658126   0.000000000
  H   -1.319480871   1.668407541  -0.885146583
  C   -0.810412966   1.291293405   0.000000000
  C   -0.813610134  -0.161670917   0.000000000
  N   -0.800776005  -1.310017950   0.000000000

7.052_noHB__ethene--acetonitrile_080.wfx

