%nprocs=4
%mem=2GB
#p hf aug-cc-pvdz output=wfx scf=(conver=6) int=(grid=ultrafine)

title

0 1
  H    1.698527829   1.223267441  -0.626344380
  H    2.934049025   1.231773576   0.742904465
  H    2.934049025  -1.231773576   0.742904465
  H    1.698527829  -1.223267441  -0.626344380
  C    2.315317383   0.662201732   0.062127049
  C    2.315317383  -0.662201732   0.062127049
  H   -2.203497716   1.311048281   1.171430135
  H   -1.153772662   2.139918081  -0.005662017
  H   -0.465775057   1.326929111   1.419776824
  H   -1.153772662  -2.139918081  -0.005662017
  H   -2.203497716  -1.311048281   1.171430135
  C   -1.242788663   1.283068800   0.655150422
  C   -1.104314352   0.000000000  -0.130673822
  O   -0.883281323   0.000000000  -1.319277250
  C   -1.242788663  -1.283068800   0.655150422
  H   -0.465775057  -1.326929111   1.419776824

7.051_noHB__ethene--acetone_100.wfx

