%nprocs=4
%mem=2GB
#p hf aug-cc-pvdz output=wfx scf=(conver=6) int=(grid=ultrafine)

title

0 1
  H    2.270189633  -0.880294624  -0.807075979
  H    3.341584745  -0.928160478   0.694925798
  H    2.900838307   1.462555374   1.075557726
  H    1.836109716   1.500840473  -0.428779678
  C    2.704658185  -0.356195850   0.032946101
  C    2.467921954   0.930787456   0.238523444
  H   -1.917206809   1.533768925   1.124590719
  H   -0.185833869   1.778014273   1.447118290
  H   -1.077825446   2.948506314   0.442196160
  H   -0.997566567  -2.587519597   0.095367719
  H   -0.631638937  -2.317422222   1.823871509
  H    0.667650400  -2.240874689   0.602743101
  O   -0.652693790   1.225014110  -0.506989203
  C   -0.438469468  -0.093471000  -0.498365330
  O   -0.109794706  -0.696962318  -1.480944842
  O   -0.641346655  -0.633346998   0.713975945
  C   -0.381574755  -2.041721677   0.805185197
  C   -0.980146371   1.903149094   0.715248403

7.056_noHB__ethene--dimethylcarbonate_090.wfx

