%nprocs=4
%mem=2GB
#p hf aug-cc-pvdz output=wfx scf=(conver=6) int=(grid=ultrafine)

title

0 1
H        1.9133235450         1.8207650500         0.9064166300
C        1.0469138280         1.7315552820         0.2485905910
O        1.0974260370         0.5353154230        -0.4979740130
H        1.0681031210         2.5243615990        -0.4973302680
H        0.1253232910         1.7964577380         0.8290389820
O        1.0974260370        -0.5353154230         0.4979740130
C        1.0469138280        -1.7315552820        -0.2485905910
H        1.9133235450        -1.8207650500        -0.9064166300
H        0.1253232910        -1.7964577380        -0.8290389820
H        1.0681031210        -2.5243615990         0.4973302680

7.059_noHB__ethene--dimethylperoxide_2.wfx

