%nprocs=4
%mem=2GB
#p hf aug-cc-pvdz output=wfx scf=(conver=6) int=(grid=ultrafine)

title

0 1
  H    1.698527829   1.223267441  -0.626344380
  H    2.934049025   1.231773576   0.742904465
  H    2.934049025  -1.231773576   0.742904465
  H    1.698527829  -1.223267441  -0.626344380
  C    2.315317383   0.662201732   0.062127049
  C    2.315317383  -0.662201732   0.062127049
  H   -3.672865816   1.311048281   1.132355727
  H   -2.623140762   2.139918081  -0.044736425
  H   -1.935143157   1.326929111   1.380702416
  H   -2.623140762  -2.139918081  -0.044736425
  H   -3.672865816  -1.311048281   1.132355727
  C   -2.712156763   1.283068800   0.616076014
  C   -2.573682452   0.000000000  -0.169748230
  O   -2.352649423   0.000000000  -1.358351658
  C   -2.712156763  -1.283068800   0.616076014
  H   -1.935143157  -1.326929111   1.380702416

7.051_noHB__ethene--acetone_150.wfx

