%nprocs=4
%mem=2GB
#p hf aug-cc-pvdz output=wfx scf=(conver=6) int=(grid=ultrafine)

title

0 1
  H    1.035275086   0.000000000   0.938798971
  H    2.795714630   0.000000000   1.494071783
  H    3.545688909   0.000000000  -0.845065539
  H    1.795970557   0.000000000  -1.408660989
  C    2.086029542   0.000000000   0.676729768
  C    2.495827608   0.000000000  -0.583198709
  H   -1.083754311  -1.287497063  -0.832155128
  H   -2.840543657  -1.258970303  -1.035536716
  H   -2.106834163  -2.084637890   0.355340441
  H   -2.834551589   0.000000000   1.127137965
  H   -2.106834163   2.084637890   0.355340441
  H   -1.083754311   1.287497063  -0.832155128
  H   -2.840543657   1.258970303  -1.035536716
  C   -2.029345659  -1.214141101  -0.293946339
  N   -2.037094117   0.000000000   0.506990905
  C   -2.029345659   1.214141101  -0.293946339

7.055_noHB__ethene--dimethylamine_125.wfx

