%nprocs=4
%mem=2GB
#p hf aug-cc-pvdz output=wfx scf=(conver=6) int=(grid=ultrafine)

title

0 1
  H    2.270189633  -0.880294624  -0.807075979
  H    3.341584745  -0.928160478   0.694925798
  H    2.900838307   1.462555374   1.075557726
  H    1.836109716   1.500840473  -0.428779678
  C    2.704658185  -0.356195850   0.032946101
  C    2.467921954   0.930787456   0.238523444
  H   -2.052088991   1.518775608   1.117527699
  H   -0.320716051   1.763020956   1.440055270
  H   -1.212707628   2.933512997   0.435133140
  H   -1.132448749  -2.602512914   0.088304699
  H   -0.766521119  -2.332415539   1.816808489
  H    0.532768218  -2.255868006   0.595680081
  O   -0.787575972   1.210020793  -0.514052223
  C   -0.573351650  -0.108464317  -0.505428350
  O   -0.244676888  -0.711955635  -1.488007862
  O   -0.776228837  -0.648340315   0.706912925
  C   -0.516456937  -2.056714994   0.798122177
  C   -1.115028553   1.888155777   0.708185383

7.056_noHB__ethene--dimethylcarbonate_095.wfx

