%nprocs=4
%mem=2GB
#p hf aug-cc-pvdz output=wfx scf=(conver=6) int=(grid=ultrafine)

title

0 1
  H    0.066469162  -0.578116438   0.000000000
  H    1.614167175  -1.587751515   0.000000000
  H    2.960999820   0.468654487   0.000000000
  H    1.420955906   1.475642171   0.000000000
  C    1.148673234  -0.610257933   0.000000000
  C    1.879183000   0.495125633   0.000000000
  N   -3.078434948   0.092624187   0.000000000
  H   -3.235357147   0.671835481   0.815136448
  H   -3.791985235  -0.625201520   0.000000000
  H   -3.235357147   0.671835481  -0.815136448

7.053_noHB__ethene--ammonia_125.wfx

