%nprocs=4
%mem=2GB
#p hf aug-cc-pvdz output=wfx scf=(conver=6) int=(grid=ultrafine)

title

0 1
  H   -1.447124334   0.442772704  -1.140328101
  H   -3.292365743   0.446163053  -1.147324220
  H   -3.292365743  -0.446163053   1.147324220
  H   -1.447124334  -0.442772704   1.140328101
  C   -2.371770336   0.239941683  -0.617421444
  C   -2.371770336  -0.239941683   0.617421444
  H    1.519422302   1.820765050   0.906416630
  H    0.674201878   2.524361599  -0.497330268
  H   -0.268577952   1.796457738   0.829038982
  H    0.674201878  -2.524361599   0.497330268
  H    1.519422302  -1.820765050  -0.906416630
  H   -0.268577952  -1.796457738  -0.829038982
  C    0.653012585   1.731555282   0.248590591
  O    0.703524794   0.535315423  -0.497974013
  O    0.703524794  -0.535315423   0.497974013
  C    0.653012585  -1.731555282  -0.248590591

7.059_noHB__ethene--dimethylperoxide_085.wfx

