%nprocs=4
%mem=2GB
#p hf aug-cc-pvdz output=wfx scf=(conver=6) int=(grid=ultrafine)

title

0 1
  H   -1.596134586   1.199841276  -0.469964958
  H   -3.235091616   1.216976252   0.369137927
  H   -3.249105111  -1.240606485   0.406596069
  H   -1.612085646  -1.266013701  -0.432329041
  C   -2.417340845   0.640697571  -0.042861476
  C   -2.426117712  -0.683914829  -0.021498909
  H    0.821847074  -0.930154523  -1.594014338
  H    0.836643071   0.939399106   1.923713180
  H    1.417240267  -0.747593598   1.812540291
  H   -0.308224278  -0.401644299   1.742419555
  O    0.687945207   1.137684787  -0.645520724
  C    0.730728673   0.107055414  -0.027458743
  O    0.810197265  -1.099270783  -0.641764513
  C    0.677881914  -0.029930987   1.464446523

7.050_noHB__ethene--aceticacid_085.wfx

