%nprocs=4
%mem=2GB
#p hf aug-cc-pvdz output=wfx scf=(conver=6) int=(grid=ultrafine)

title

0 1
  H    1.073849117  -0.000001496  -0.969331769
  H    2.853979759  -0.000000454  -1.452840587
  H    3.502887572   0.000001043   0.918487363
  H    1.729872596  -0.000000039   1.404747976
  C    2.111911541  -0.000000659  -0.665239994
  C    2.465539518   0.000000600   0.611293472
  H   -0.984017217  -2.020436721  -0.422119574
  H   -1.999232051  -1.225362843   0.802828099
  H   -0.228293268  -1.231409343   0.978096628
  H   -0.984017008   2.020436505  -0.422120926
  H   -1.999232065   1.225363574   0.802827180
  H   -0.228293303   1.231410014   0.978095908
  C   -1.050684183  -1.173953700   0.256537387
  O   -0.970998311  -0.000000160  -0.521983300
  C   -1.050684140   1.173953914   0.256536586

7.058_noHB__ethene--dimethylether_085.wfx

