%nprocs=4
%mem=2GB
#p hf aug-cc-pvdz output=wfx scf=(conver=6) int=(grid=ultrafine)

title

0 1
  H    2.808783489   0.538411045  -1.231451237
  H    1.349845487  -0.588677753  -1.225158205
  H    1.349845487  -0.588677753   1.225158205
  H    2.808783489   0.538411045   1.231451237
  C    2.077912977  -0.020456786  -0.662248340
  C    2.077912977  -0.020456786   0.662248340
  H   -1.461740663   1.599393529  -0.886505474
  H    0.077187027   1.559801949   0.000000000
  H   -1.461740663   1.599393529   0.886505474
  C   -0.977479194  -1.358835560   0.000000000
  N   -0.983594488  -0.195881063   0.000000000
  C   -0.956691007   1.221684663   0.000000000

7.066_noHB__ethene--methylisocyanide_085.wfx

