%nprocs=4
%mem=2GB
#p hf aug-cc-pvdz output=wfx scf=(conver=6) int=(grid=ultrafine)

title

0 1
  H   -1.013884107   0.371072959  -1.217879016
  H   -2.683997190  -0.418308490  -1.232574598
  H   -2.683997190  -0.418308490   1.232574598
  H   -1.013884107   0.371072959   1.217879016
  C   -1.852006081  -0.026609922  -0.662232563
  C   -1.852006081  -0.026609922   0.662232563
  O    1.527619058   0.679813722   0.000000000
  H    2.301941589   1.245746499   0.000000000
  C    1.946232172  -0.680468409   0.000000000
  H    1.042657202  -1.283935579   0.000000000
  H    2.530915569  -0.927296173   0.890055494
  H    2.530915569  -0.927296173  -0.890055494

7.061_noHB__ethene--methanol_105.wfx

