%nprocs=4
%mem=2GB
#p hf aug-cc-pvdz output=wfx scf=(conver=6) int=(grid=ultrafine)

title

0 1
H        1.7910995040         0.3732669770         1.0724231380
C        2.6396351310         0.1406208960         0.4430654070
C        2.4811369880        -0.1771669080        -0.8326436320
H        3.6216712770         0.1786391790         0.8959524260
H        1.4993520530        -0.2140521250        -1.2853615060
H        3.3190032970        -0.4116988810        -1.4756058820

7.069_noHB__ethene--Nmethyl2propanimine_1.wfx

