%nprocs=4
%mem=2GB
#p hf aug-cc-pvdz output=wfx scf=(conver=6) int=(grid=ultrafine)

title

0 1
H        2.8087834890         0.5384110450        -1.2314512370
C        2.0779129770        -0.0204567860        -0.6622483400
H        1.3498454870        -0.5886777530        -1.2251582050
C        2.0779129770        -0.0204567860         0.6622483400
H        1.3498454870        -0.5886777530         1.2251582050
H        2.8087834890         0.5384110450         1.2314512370

7.066_noHB__ethene--methylisocyanide_1.wfx

