%nprocs=4
%mem=2GB
#p hf aug-cc-pvdz output=wfx scf=(conver=6) int=(grid=ultrafine)

title

0 1
  H   -1.585714913  -0.353942990  -1.332060745
  H   -2.783795769   1.037394143  -1.172189595
  H   -2.990948082   0.569249664   1.237614193
  H   -1.784727644  -0.817352164   1.063216547
  C   -2.228680958   0.239743678  -0.696445596
  C   -2.338573167  -0.012623970   0.599661302
  H   -0.340514422   1.610659347   0.602947276
  H    1.105493420   2.439530078  -0.048389230
  H    1.261499557   1.363731834   1.369560372
  C    0.731040723   1.547542205   0.438816461
  O    1.007771917   0.461526954  -0.495905544
  C    0.650579075  -0.708094634  -0.108408449
  N    0.343345500  -1.776219229   0.204963659

7.065_noHB__ethene--methylcyanate_085.wfx

