%nprocs=4
%mem=2GB
#p hf aug-cc-pvdz output=wfx scf=(conver=6) int=(grid=ultrafine)

title

0 1
  H    1.340673174   1.099396203   0.000000000
  H    3.065870794   1.743163357   0.000000000
  H    3.925971160  -0.561768215   0.000000000
  H    2.196860173  -1.201544889   0.000000000
  C    2.401241323   0.889256579   0.000000000
  C    2.864708134  -0.351189573   0.000000000
  H   -4.717240420   1.194122614  -1.368908370
  H   -4.717240420   1.194122614   1.368908370
  H   -3.359426973  -1.081699149  -2.046990520
  H   -3.359426973  -1.081699149   2.046990520
  C   -4.282933532   0.458369787   0.716371208
  C   -4.282933532   0.458369787  -0.716371208
  C   -3.618458890  -0.659669612  -1.094583231
  O   -3.206392539  -1.356434205   0.000000000
  C   -3.618458890  -0.659669612   1.094583231

7.060_noHB__ethene--furan_200.wfx

