%nprocs=4
%mem=2GB
#p hf aug-cc-pvdz output=wfx scf=(conver=6) int=(grid=ultrafine)

title

0 1
  H    2.808783489   0.538411045  -1.231451237
  H    1.349845487  -0.588677753  -1.225158205
  H    1.349845487  -0.588677753   1.225158205
  H    2.808783489   0.538411045   1.231451237
  C    2.077912977  -0.020456786  -0.662248340
  C    2.077912977  -0.020456786   0.662248340
  H   -2.658343966   1.611559801  -0.886505474
  H   -1.119416276   1.571968221   0.000000000
  H   -2.658343966   1.611559801   0.886505474
  C   -2.174082497  -1.346669288   0.000000000
  N   -2.180197791  -0.183714791   0.000000000
  C   -2.153294310   1.233850935   0.000000000

7.066_noHB__ethene--methylisocyanide_125.wfx

