%nprocs=4
%mem=2GB
#p hf aug-cc-pvdz output=wfx scf=(conver=6) int=(grid=ultrafine)

title

0 1
H       -1.3630327200         0.0702907040         1.3292491970
C       -2.1371357940        -0.2088765170         0.6266280420
H       -2.9353309060        -0.8324264390         1.0067484730
C       -2.1115938830         0.1970771170        -0.6335684860
H       -2.8878529070        -0.0775510660        -1.3351795390
H       -1.3159024270         0.8251112450        -1.0116347280

7.068_noHB__ethene--nitrosomethane_1.wfx

