%nprocs=4
%mem=2GB
#p hf aug-cc-pvdz output=wfx scf=(conver=6) int=(grid=ultrafine)

title

0 1
  H   -1.013884107   0.371072959  -1.217879016
  H   -2.683997190  -0.418308490  -1.232574598
  H   -2.683997190  -0.418308490   1.232574598
  H   -1.013884107   0.371072959   1.217879016
  C   -1.852006081  -0.026609922  -0.662232563
  C   -1.852006081  -0.026609922   0.662232563
  O    2.070348133   0.687487547   0.000000000
  H    2.844670664   1.253420324   0.000000000
  C    2.488961247  -0.672794584   0.000000000
  H    1.585386277  -1.276261754   0.000000000
  H    3.073644644  -0.919622348   0.890055494
  H    3.073644644  -0.919622348  -0.890055494

7.061_noHB__ethene--methanol_125.wfx

