%nprocs=4
%mem=2GB
#p hf aug-cc-pvdz output=wfx scf=(conver=6) int=(grid=ultrafine)

title

0 1
  H   -1.013884107   0.371072959  -1.217879016
  H   -2.683997190  -0.418308490  -1.232574598
  H   -2.683997190  -0.418308490   1.232574598
  H   -1.013884107   0.371072959   1.217879016
  C   -1.852006081  -0.026609922  -0.662232563
  C   -1.852006081  -0.026609922   0.662232563
  O    1.391936789   0.677895266   0.000000000
  H    2.166259320   1.243828043   0.000000000
  C    1.810549903  -0.682386865   0.000000000
  H    0.906974933  -1.285854035   0.000000000
  H    2.395233300  -0.929214629   0.890055494
  H    2.395233300  -0.929214629  -0.890055494

7.061_noHB__ethene--methanol_100.wfx

