%nprocs=4
%mem=2GB
#p hf aug-cc-pvdz output=wfx scf=(conver=6) int=(grid=ultrafine)

title

0 1
H       -1.6163319980         0.2225985410         1.2379266850
C       -2.5311149140         0.1936674710         0.6618063340
H       -3.4342825560         0.4960531480         1.1750259400
C       -2.5525944540        -0.1890931530        -0.6064775020
H       -3.4722670370        -0.2142205830        -1.1756963090
H       -1.6536742340        -0.4922012960        -1.1257550980

7.062_noHB__ethene--methylacetate_1.wfx

