%nprocs=4
%mem=2GB
#p hf aug-cc-pvdz output=wfx scf=(conver=6) int=(grid=ultrafine)

title

0 1
H       -1.5857149130        -0.3539429900        -1.3320607450
C       -2.2286809580         0.2397436780        -0.6964455960
C       -2.3385731670        -0.0126239700         0.5996613020
H       -2.7837957690         1.0373941430        -1.1721895950
H       -1.7847276440        -0.8173521640         1.0632165470
H       -2.9909480820         0.5692496640         1.2376141930

7.065_noHB__ethene--methylcyanate_1.wfx

