%nprocs=4
%mem=2GB
#p hf aug-cc-pvdz output=wfx scf=(conver=6) int=(grid=ultrafine)

title

0 1
H       -2.0212941390         1.4697144520        -1.3689083700
C       -1.5869872510         0.7339616250        -0.7163712080
C       -0.9225126090        -0.3840777740        -1.0945832310
C       -1.5869872510         0.7339616250         0.7163712080
H       -0.6634806920        -0.8061073110        -2.0469905200
O       -0.5104462580        -1.0808423670         0.0000000000
C       -0.9225126090        -0.3840777740         1.0945832310
H       -2.0212941390         1.4697144520         1.3689083700
H       -0.6634806920        -0.8061073110         2.0469905200

7.060_noHB__ethene--furan_2.wfx

