%nprocs=4
%mem=2GB
#p hf aug-cc-pvdz output=wfx scf=(conver=6) int=(grid=ultrafine)

title

0 1
  H    1.340673174   1.099396203   0.000000000
  H    3.065870794   1.743163357   0.000000000
  H    3.925971160  -0.561768215   0.000000000
  H    2.196860173  -1.201544889   0.000000000
  C    2.401241323   0.889256579   0.000000000
  C    2.864708134  -0.351189573   0.000000000
  H   -1.751699511   1.497273636  -1.368908370
  H   -1.751699511   1.497273636   1.368908370
  H   -0.393886064  -0.778548127  -2.046990520
  H   -0.393886064  -0.778548127   2.046990520
  C   -1.317392623   0.761520809   0.716371208
  C   -1.317392623   0.761520809  -0.716371208
  C   -0.652917981  -0.356518590  -1.094583231
  O   -0.240851630  -1.053283183   0.000000000
  C   -0.652917981  -0.356518590   1.094583231

7.060_noHB__ethene--furan_090.wfx

