%nprocs=4
%mem=2GB
#p hf aug-cc-pvdz output=wfx scf=(conver=6) int=(grid=ultrafine)

title

0 1
  H   -0.685664906  -0.927985382   0.000000000
  H   -2.429813336  -1.531486422   0.000000000
  H   -3.244771408   0.785279066   0.000000000
  H   -1.510151131   1.396931578   0.000000000
  C   -1.742960093  -0.694679542   0.000000000
  C   -2.187780331   0.553476374   0.000000000
  N    3.102449361  -0.612282131   0.000000000
  H    3.623789361  -0.912465694   0.812656575
  H    3.623789361  -0.912465694  -0.812656575
  C    2.923942740   0.840299515   0.000000000
  H    2.346157091   1.129132626  -0.876975902
  H    3.853509225   1.420436440   0.000000000
  H    2.346157091   1.129132626   0.876975902

7.063_noHB__ethene--methylamine_150.wfx

