%nprocs=4
%mem=2GB
#p hf aug-cc-pvdz output=wfx scf=(conver=6) int=(grid=ultrafine)

title

0 1
  H   -1.013884107   0.371072959  -1.217879016
  H   -2.683997190  -0.418308490  -1.232574598
  H   -2.683997190  -0.418308490   1.232574598
  H   -1.013884107   0.371072959   1.217879016
  C   -1.852006081  -0.026609922  -0.662232563
  C   -1.852006081  -0.026609922   0.662232563
  O    4.105582164   0.716264390   0.000000000
  H    4.879904695   1.282197167   0.000000000
  C    4.524195278  -0.644017741   0.000000000
  H    3.620620308  -1.247484911   0.000000000
  H    5.108878675  -0.890845505   0.890055494
  H    5.108878675  -0.890845505  -0.890055494

7.061_noHB__ethene--methanol_200.wfx

