%nprocs=4
%mem=2GB
#p hf aug-cc-pvdz output=wfx scf=(conver=6) int=(grid=ultrafine)

title

0 1
  H   -1.585714913  -0.353942990  -1.332060745
  H   -2.783795769   1.037394143  -1.172189595
  H   -2.990948082   0.569249664   1.237614193
  H   -1.784727644  -0.817352164   1.063216547
  C   -2.228680958   0.239743678  -0.696445596
  C   -2.338573167  -0.012623970   0.599661302
  H    2.952382385   1.447916737   0.673225338
  H    4.398390227   2.276787468   0.021888832
  H    4.554396364   1.200989224   1.439838434
  C    4.023937530   1.384799595   0.509094523
  O    4.300668724   0.298784344  -0.425627482
  C    3.943475882  -0.870837244  -0.038130387
  N    3.636242307  -1.938961839   0.275241721

7.065_noHB__ethene--methylcyanate_200.wfx

