%nprocs=4
%mem=2GB
#p hf aug-cc-pvdz output=wfx scf=(conver=6) int=(grid=ultrafine)

title

0 1
H       -2.5898846250        -0.0535970050        -1.2820085690
C       -1.5775104990        -0.4623028830        -1.2694731280
H       -1.6196414710        -1.4808567840        -1.6467301230
C       -1.0047945460        -0.4104609030         0.1296328050
H       -0.9857417750         0.1401508200        -1.9590894790
C       -0.7554617920        -1.7286556150         0.8025856010
N       -0.7224287700         0.6581124790         0.7524139410
H       -0.3880210960        -1.5742826740         1.8125290830
H       -1.6712002500        -2.3231685810         0.8343363530
H       -0.0203902530        -2.3064834550         0.2380960580
C       -0.9399976550         1.9382214550         0.1012393230
H       -0.2215782090         2.0931412120        -0.7094542240
H       -1.9438483630         2.0361250060        -0.3226517020
H       -0.7970106960         2.7356297420         0.8263449880

7.069_noHB__ethene--Nmethyl2propanimine_2.wfx

