%nprocs=4
%mem=2GB
#p hf aug-cc-pvdz output=wfx scf=(conver=6) int=(grid=ultrafine)

title

0 1
  H   -1.013884107   0.371072959  -1.217879016
  H   -2.683997190  -0.418308490  -1.232574598
  H   -2.683997190  -0.418308490   1.232574598
  H   -1.013884107   0.371072959   1.217879016
  C   -1.852006081  -0.026609922  -0.662232563
  C   -1.852006081  -0.026609922   0.662232563
  O    1.663301326   0.681732178   0.000000000
  H    2.437623857   1.247664955   0.000000000
  C    2.081914440  -0.678549953   0.000000000
  H    1.178339470  -1.282017123   0.000000000
  H    2.666597837  -0.925377717   0.890055494
  H    2.666597837  -0.925377717  -0.890055494

7.061_noHB__ethene--methanol_110.wfx

