%nprocs=4
%mem=2GB
#p hf aug-cc-pvdz output=wfx scf=(conver=6) int=(grid=ultrafine)

title

0 1
  H   -1.013884107   0.371072959  -1.217879016
  H   -2.683997190  -0.418308490  -1.232574598
  H   -2.683997190  -0.418308490   1.232574598
  H   -1.013884107   0.371072959   1.217879016
  C   -1.852006081  -0.026609922  -0.662232563
  C   -1.852006081  -0.026609922   0.662232563
  O    0.849207714   0.670221441   0.000000000
  H    1.623530245   1.236154218   0.000000000
  C    1.267820828  -0.690060690   0.000000000
  H    0.364245858  -1.293527860   0.000000000
  H    1.852504225  -0.936888454   0.890055494
  H    1.852504225  -0.936888454  -0.890055494

7.061_noHB__ethene--methanol_080.wfx

