%nprocs=4
%mem=2GB
#p hf aug-cc-pvdz output=wfx scf=(conver=6) int=(grid=ultrafine)

title

0 1
  H   -1.585714913  -0.353942990  -1.332060745
  H   -2.783795769   1.037394143  -1.172189595
  H   -2.990948082   0.569249664   1.237614193
  H   -1.784727644  -0.817352164   1.063216547
  C   -2.228680958   0.239743678  -0.696445596
  C   -2.338573167  -0.012623970   0.599661302
  H    0.232163283   1.582356284   0.615169548
  H    1.678171125   2.411227015  -0.036166958
  H    1.834177262   1.335428771   1.381782644
  C    1.303718428   1.519239142   0.451038733
  O    1.580449622   0.433223891  -0.483683272
  C    1.223256780  -0.736397697  -0.096186177
  N    0.916023205  -1.804522292   0.217185931

7.065_noHB__ethene--methylcyanate_105.wfx

