%nprocs=4
%mem=2GB
#p hf aug-cc-pvdz output=wfx scf=(conver=6) int=(grid=ultrafine)

title

0 1
O        1.3919367890         0.6778952660         0.0000000000
C        1.8105499030        -0.6823868650         0.0000000000
H        2.1662593200         1.2438280430         0.0000000000
H        2.3952333000        -0.9292146290        -0.8900554940
H        0.9069749330        -1.2858540350         0.0000000000
H        2.3952333000        -0.9292146290         0.8900554940

7.061_noHB__ethene--methanol_2.wfx

