%nprocs=4
%mem=2GB
#p hf aug-cc-pvdz output=wfx scf=(conver=6) int=(grid=ultrafine)

title

0 1
  H    2.808783489   0.538411045  -1.231451237
  H    1.349845487  -0.588677753  -1.225158205
  H    1.349845487  -0.588677753   1.225158205
  H    2.808783489   0.538411045   1.231451237
  C    2.077912977  -0.020456786  -0.662248340
  C    2.077912977  -0.020456786   0.662248340
  H   -1.760891489   1.602435097  -0.886505474
  H   -0.221963799   1.562843517   0.000000000
  H   -1.760891489   1.602435097   0.886505474
  C   -1.276630020  -1.355793992   0.000000000
  N   -1.282745314  -0.192839495   0.000000000
  C   -1.255841833   1.224726231   0.000000000

7.066_noHB__ethene--methylisocyanide_095.wfx

