%nprocs=4
%mem=2GB
#p hf aug-cc-pvdz output=wfx scf=(conver=6) int=(grid=ultrafine)

title

0 1
H        1.3406731740         1.0993962030         0.0000000000
C        2.4012413230         0.8892565790         0.0000000000
C        2.8647081340        -0.3511895730         0.0000000000
H        3.0658707940         1.7431633570         0.0000000000
H        2.1968601730        -1.2015448890         0.0000000000
H        3.9259711600        -0.5617682150         0.0000000000

7.060_noHB__ethene--furan_1.wfx

