%nprocs=4
%mem=2GB
#p hf aug-cc-pvdz output=wfx scf=(conver=6) int=(grid=ultrafine)

title

0 1
  H   -2.393608658  -1.079283453  -0.000000000
  H   -4.089394920  -0.348731589  -0.000000000
  H   -3.108512908   1.907742281   0.000000000
  H   -1.421114751   1.171193523   0.000000000
  C   -3.018073539  -0.196392641  -0.000000000
  C   -2.491589285   1.018755217   0.000000000
  H    1.073508722   0.962862845   2.146607049
  H   -0.219477681  -1.151684777   2.052296941
  C    1.182431388   1.132223250  -0.000000000
  C    0.812774534   0.527654922   1.192996603
  C    0.089919274  -0.657757206   1.139544075
  N   -0.268597065  -1.248156375  -0.000000000
  C    0.089919274  -0.657757206  -1.139544075
  C    0.812774534   0.527654922  -1.192996603
  H   -0.219477681  -1.151684777  -2.052296941
  H    1.073508722   0.962862845  -2.146607049
  H    1.743566819   2.056032465  -0.000000000

7.072_noHB__ethene--pyridine_080.wfx

