%nprocs=4
%mem=2GB
#p hf aug-cc-pvdz output=wfx scf=(conver=6) int=(grid=ultrafine)

title

0 1
C       -2.6033719420         0.0656053170        -0.0358609830
H       -3.5631987720         0.5735243910         0.0193399250
H       -2.6530461170        -0.8603541370         0.5328066340
H       -2.3768819390        -0.1593761360        -1.0760877970
H       -1.8268778000         0.7057720370         0.3742190370

7.078_noHB__methane--acetaldehyde_1.wfx

