%nprocs=4
%mem=2GB
#p hf aug-cc-pvdz output=wfx scf=(conver=6) int=(grid=ultrafine)

title

0 1
  C   -1.856770909   0.599672070   0.000000000
  H   -1.128506429   1.373951790   0.000000000
  C   -2.663395914  -0.283498622   0.000000000
  H   -3.390961655  -1.056242052   0.000000000
  H    1.365069983  -1.731190887  -0.886967497
  H   -0.143976740  -1.424849335   0.000000000
  H    1.365069983  -1.731190887   0.886967497
  C    1.388897682   1.267446515   0.000000000
  N    1.205197937   0.119352912   0.000000000
  C    0.933499761  -1.272540600   0.000000000

7.077_noHB__ethyne--methylisocyanide_090.wfx

