%nprocs=4
%mem=2GB
#p hf aug-cc-pvdz output=wfx scf=(conver=6) int=(grid=ultrafine)

title

0 1
  H   -2.393608658  -1.079283453  -0.000000000
  H   -4.089394920  -0.348731589  -0.000000000
  H   -3.108512908   1.907742281   0.000000000
  H   -1.421114751   1.171193523   0.000000000
  C   -3.018073539  -0.196392641  -0.000000000
  C   -2.491589285   1.018755217   0.000000000
  H    2.917417886   0.687471165   2.146607049
  H    1.624431483  -1.427076457   2.052296941
  C    3.026340552   0.856831570   0.000000000
  C    2.656683698   0.252263242   1.192996603
  C    1.933828438  -0.933148886   1.139544075
  N    1.575312099  -1.523548055   0.000000000
  C    1.933828438  -0.933148886  -1.139544075
  C    2.656683698   0.252263242  -1.192996603
  H    1.624431483  -1.427076457  -2.052296941
  H    2.917417886   0.687471165  -2.146607049
  H    3.587475983   1.780640785   0.000000000

7.072_noHB__ethene--pyridine_150.wfx

