%nprocs=4
%mem=2GB
#p hf aug-cc-pvdz output=wfx scf=(conver=6) int=(grid=ultrafine)

title

0 1
H       -1.4032499070         1.7755005910         1.3691765730
C       -1.2763168030         0.9307279140         0.7164774340
C       -1.0815399540        -0.3563216950         1.0942526020
C       -1.2763168030         0.9307279140        -0.7164774340
O       -0.9609264720        -1.1557396670         0.0000000000
H       -1.0030751700        -0.8452087950         2.0467724010
C       -1.0815399540        -0.3563216950        -1.0942526020
H       -1.4032499070         1.7755005910        -1.3691765730
H       -1.0030751700        -0.8452087950        -2.0467724010

7.075_noHB__ethyne--furan_2.wfx

