%nprocs=4
%mem=2GB
#p hf aug-cc-pvdz output=wfx scf=(conver=6) int=(grid=ultrafine)

title

0 1
  C   -1.856770909   0.599672070   0.000000000
  H   -1.128506429   1.373951790   0.000000000
  C   -2.663395914  -0.283498622   0.000000000
  H   -3.390961655  -1.056242052   0.000000000
  H    1.225435848  -1.721420066  -0.886967497
  H   -0.283610875  -1.415078514   0.000000000
  H    1.225435848  -1.721420066   0.886967497
  C    1.249263547   1.277217336   0.000000000
  N    1.065563802   0.129123733   0.000000000
  C    0.793865626  -1.262769779   0.000000000

7.077_noHB__ethyne--methylisocyanide_085.wfx

