%nprocs=4
%mem=2GB
#p hf aug-cc-pvdz output=wfx scf=(conver=6) int=(grid=ultrafine)

title

0 1
H        1.0993390030        -1.5556510840         1.3760354620
C        0.9007221690        -1.6098877620         0.3089428240
O        1.6281937370        -0.5372804210        -0.3682377750
H        1.2972459720        -2.5254528700        -0.1121486190
H       -0.1613685210        -1.5085836400         0.1059557960
C        1.2620953600         0.6523035030        -0.0648922770
N        0.9479032380         1.7353299690         0.1850541120

7.076_noHB__ethyne--methylcyanate_2.wfx

