%nprocs=4
%mem=2GB
#p hf aug-cc-pvdz output=wfx scf=(conver=6) int=(grid=ultrafine)

title

0 1
H       -2.3936086580        -1.0792834530         0.0000000000
C       -3.0180735390        -0.1963926410         0.0000000000
H       -4.0893949200        -0.3487315890         0.0000000000
C       -2.4915892850         1.0187552170         0.0000000000
H       -1.4211147510         1.1711935230         0.0000000000
H       -3.1085129080         1.9077422810         0.0000000000

7.072_noHB__ethene--pyridine_1.wfx

