%nprocs=4
%mem=2GB
#p hf aug-cc-pvdz output=wfx scf=(conver=6) int=(grid=ultrafine)

title

0 1
  C    2.373968967   0.260873410   0.000000000
  H    1.346633224   0.533549146   0.000000000
  C    3.530326310  -0.044469118   0.000000000
  H    4.555911182  -0.316694926   0.000000000
  H   -1.540552710   1.770467242   1.369176573
  H   -1.540552710   1.770467242  -1.369176573
  H   -1.140377973  -0.850242144   2.046772401
  H   -1.140377973  -0.850242144  -2.046772401
  C   -1.413619606   0.925694565  -0.716477434
  C   -1.413619606   0.925694565   0.716477434
  C   -1.218842757  -0.361355044   1.094252602
  O   -1.098229275  -1.160773016   0.000000000
  C   -1.218842757  -0.361355044  -1.094252602

7.075_noHB__ethyne--furan_105.wfx

