%nprocs=4
%mem=2GB
#p hf aug-cc-pvdz output=wfx scf=(conver=6) int=(grid=ultrafine)

title

0 1
H       -1.5251423850         2.3306596270         0.0000000000
C       -1.5235363260         1.2504907810         0.0000000000
C       -2.7068907100         0.5278095660         0.0000000000
C       -0.3030266600         0.5794200710         0.0000000000
C       -2.6907720580        -0.8632941300         0.0000000000
H       -3.6497389440         1.0566488990         0.0000000000
C       -0.2781450670        -0.8139538290         0.0000000000
O        0.8306721300         1.3331260170         0.0000000000
H       -3.6157273450        -1.4208157700         0.0000000000
C       -1.4707378480        -1.5265376530         0.0000000000
H        0.6695553120        -1.3346447880         0.0000000000
H        1.6118289470         0.7650135790         0.0000000000
H       -1.4415440760        -2.6072348090         0.0000000000

7.071_noHB__ethene--phenol_2.wfx

