%nprocs=4
%mem=2GB
#p hf aug-cc-pvdz output=wfx scf=(conver=6) int=(grid=ultrafine)

title

0 1
  C    2.373968967   0.260873410   0.000000000
  H    1.346633224   0.533549146   0.000000000
  C    3.530326310  -0.044469118   0.000000000
  H    4.555911182  -0.316694926   0.000000000
  H   -1.403249907   1.775500591   1.369176573
  H   -1.403249907   1.775500591  -1.369176573
  H   -1.003075170  -0.845208795   2.046772401
  H   -1.003075170  -0.845208795  -2.046772401
  C   -1.276316803   0.930727914  -0.716477434
  C   -1.276316803   0.930727914   0.716477434
  C   -1.081539954  -0.356321695   1.094252602
  O   -0.960926472  -1.155739667   0.000000000
  C   -1.081539954  -0.356321695  -1.094252602

7.075_noHB__ethyne--furan_100.wfx

