%nprocs=4
%mem=2GB
#p hf aug-cc-pvdz output=wfx scf=(conver=6) int=(grid=ultrafine)

title

0 1
  C   -1.856770909   0.599672070   0.000000000
  H   -1.128506429   1.373951790   0.000000000
  C   -2.663395914  -0.283498622   0.000000000
  H   -3.390961655  -1.056242052   0.000000000
  H    4.437020951  -1.946148960  -0.886967497
  H    2.927974228  -1.639807408   0.000000000
  H    4.437020951  -1.946148960   0.886967497
  C    4.460848650   1.052488442   0.000000000
  N    4.277148905  -0.095605161   0.000000000
  C    4.005450729  -1.487498673   0.000000000

7.077_noHB__ethyne--methylisocyanide_200.wfx

