%nprocs=4
%mem=2GB
#p hf aug-cc-pvdz output=wfx scf=(conver=6) int=(grid=ultrafine)

title

0 1
C        2.3739689670         0.2608734100         0.0000000000
H        1.3466332240         0.5335491460         0.0000000000
C        3.5303263100        -0.0444691180         0.0000000000
H        4.5559111820        -0.3166949260         0.0000000000

7.075_noHB__ethyne--furan_1.wfx

