%nprocs=4
%mem=2GB
#p hf aug-cc-pvdz output=wfx scf=(conver=6) int=(grid=ultrafine)

title

0 1
H       -1.1312813800         1.2316178040         0.9088227920
C       -1.2973100210         0.6629698010         0.0038551900
C       -1.2973100210        -0.6629698010         0.0038551900
H       -1.4678466230         1.2316149200        -0.9004088330
H       -1.4678466230        -1.2316149200        -0.9004088330
H       -1.1312813800        -1.2316178040         0.9088227920

7.074_noHB__ethene--water_1.wfx

