%nprocs=4
%mem=2GB
#p hf aug-cc-pvdz output=wfx scf=(conver=6) int=(grid=ultrafine)

title

0 1
H       -1.6839848780         1.2877407880        -1.4597003430
C       -0.8936341730         1.2005894100        -0.6954015390
H       -0.9414849430         2.0811365670        -0.0561779120
N       -1.0254450030         0.0000000000         0.1095289210
H        0.0703858670         1.2028904790        -1.2017858990
C       -0.8936341730        -1.2005894100        -0.6954015390
C       -2.2589251340         0.0000000000         0.8738635430
H       -1.6839848780        -1.2877407880        -1.4597003430
H       -0.9414849430        -2.0811365670        -0.0561779120
H        0.0703858670        -1.2028904790        -1.2017858990
H       -3.1563850110         0.0000000000         0.2323971390
H       -2.2992226950        -0.8827259190         1.5107816470
H       -2.2992226950         0.8827259190         1.5107816470

7.073_noHB__ethene--trimethylamine_2.wfx

