%nprocs=4
%mem=2GB
#p hf aug-cc-pvdz output=wfx scf=(conver=6) int=(grid=ultrafine)

title

0 1
O        2.0552139930         0.0000000000         0.0494905690
H        2.3967229930         0.0000000000        -0.8474192800
H        1.0960864420         0.0000000000        -0.0468680740

7.074_noHB__ethene--water_2.wfx

