%nprocs=4
%mem=2GB
#p hf aug-cc-pvdz output=wfx scf=(conver=6) int=(grid=ultrafine)

title

0 1
  C   -2.603371942   0.065605317  -0.035860983
  H   -1.826877800   0.705772037   0.374219037
  H   -2.376881939  -0.159376136  -1.076087797
  H   -3.563198772   0.573524391   0.019339925
  H   -2.653046117  -0.860354137   0.532806634
  H    1.253907762  -1.885752207   0.162111314
  H   -0.360623755  -1.739686604  -0.504607295
  H   -0.052679838  -1.190766576   1.164615313
  H    1.138868252   0.104672751  -1.393463255
  C    0.359031173  -1.259612612   0.161831022
  C    0.700437518   0.098226828  -0.374349787
  O    0.529371314   1.132248875   0.215712928

7.078_noHB__methane--acetaldehyde_085.wfx

