%nprocs=4
%mem=2GB
#p hf aug-cc-pvdz output=wfx scf=(conver=6) int=(grid=ultrafine)

title

0 1
C        2.8073063990         0.0634579240         0.1486897980
H        3.1231067780        -0.9737381210         0.0583849560
H        2.1204110740         0.3094145030        -0.6568110960
H        2.3103707280         0.2095929170         1.1055730440
H        3.6806579930         0.7093596550         0.0961143750

7.079_noHB__methane--acetamide_1.wfx

