%nprocs=4
%mem=2GB
#p hf aug-cc-pvdz output=wfx scf=(conver=6) int=(grid=ultrafine)

title

0 1
  C   -1.856770909   0.599672070   0.000000000
  H   -1.128506429   1.373951790   0.000000000
  C   -2.663395914  -0.283498622   0.000000000
  H   -3.390961655  -1.056242052   0.000000000
  H    1.085801713  -1.711649244  -0.886967497
  H   -0.423245010  -1.405307692   0.000000000
  H    1.085801713  -1.711649244   0.886967497
  C    1.109629412   1.286988158   0.000000000
  N    0.925929667   0.138894555   0.000000000
  C    0.654231491  -1.252998957   0.000000000

7.077_noHB__ethyne--methylisocyanide_080.wfx

