%nprocs=4
%mem=2GB
#p hf aug-cc-pvdz output=wfx scf=(conver=6) int=(grid=ultrafine)

title

0 1
  H   -2.393608658  -1.079283453  -0.000000000
  H   -4.089394920  -0.348731589  -0.000000000
  H   -3.108512908   1.907742281   0.000000000
  H   -1.421114751   1.171193523   0.000000000
  C   -3.018073539  -0.196392641  -0.000000000
  C   -2.491589285   1.018755217   0.000000000
  H    1.205216520   0.943192011   2.146607049
  H   -0.087769883  -1.171355611   2.052296941
  C    1.314139186   1.112552416  -0.000000000
  C    0.944482332   0.507984088   1.192996603
  C    0.221627072  -0.677428040   1.139544075
  N   -0.136889267  -1.267827209  -0.000000000
  C    0.221627072  -0.677428040  -1.139544075
  C    0.944482332   0.507984088  -1.192996603
  H   -0.087769883  -1.171355611  -2.052296941
  H    1.205216520   0.943192011  -2.146607049
  H    1.875274617   2.036361631  -0.000000000

7.072_noHB__ethene--pyridine_085.wfx

