%nprocs=4
%mem=2GB
#p hf aug-cc-pvdz output=wfx scf=(conver=6) int=(grid=ultrafine)

title

0 1
  H    3.248284671  -1.180119597  -1.232706471
  H    4.063172067   0.469218733  -1.231786806
  H    4.063172067   0.469218733   1.231786806
  H    3.248284671  -1.180119597   1.232706471
  C    3.653323237  -0.354446731  -0.663106483
  C    3.653323237  -0.354446731   0.663106483
  H   -1.766097061   2.354044438   0.000000000
  H   -3.856682021  -1.397430959   0.000000000
  H   -3.890693620   1.080033710   0.000000000
  H    0.428600636  -1.311259977   0.000000000
  H    1.370874271   0.788398390   0.000000000
  H   -1.682498752  -2.583849998   0.000000000
  C   -2.931726734  -0.839909319   0.000000000
  C   -2.947845386   0.551194377   0.000000000
  C   -1.764491002   1.273875592   0.000000000
  C   -0.543981336   0.602804882   0.000000000
  C   -0.519099743  -0.790569018   0.000000000
  C   -1.711692524  -1.503152842   0.000000000
  O    0.589717454   1.356510828   0.000000000

7.071_noHB__ethene--phenol_110.wfx

