%nprocs=4
%mem=2GB
#p hf aug-cc-pvdz output=wfx scf=(conver=6) int=(grid=ultrafine)

title

0 1
  H   -2.393608658  -1.079283453  -0.000000000
  H   -4.089394920  -0.348731589  -0.000000000
  H   -3.108512908   1.907742281   0.000000000
  H   -1.421114751   1.171193523   0.000000000
  C   -3.018073539  -0.196392641  -0.000000000
  C   -2.491589285   1.018755217   0.000000000
  H    1.863755507   0.844837839   2.146607049
  H    0.570769104  -1.269709783   2.052296941
  C    1.972678173   1.014198244   0.000000000
  C    1.603021319   0.409629916   1.192996603
  C    0.880166059  -0.775782212   1.139544075
  N    0.521649720  -1.366181381   0.000000000
  C    0.880166059  -0.775782212  -1.139544075
  C    1.603021319   0.409629916  -1.192996603
  H    0.570769104  -1.269709783  -2.052296941
  H    1.863755507   0.844837839  -2.146607049
  H    2.533813604   1.938007459   0.000000000

7.072_noHB__ethene--pyridine_110.wfx

