%nprocs=4
%mem=2GB
#p hf aug-cc-pvdz output=wfx scf=(conver=6) int=(grid=ultrafine)

title

0 1
  C   -2.205477915   0.506140854   0.012343440
  H   -1.497307390   1.296619202   0.100808759
  C   -2.984113541  -0.396778057  -0.089862365
  H   -3.687969051  -1.185846829  -0.181470218
  H    0.850853892  -1.550409073   1.372311855
  H   -0.409853632  -1.503341629   0.102232189
  H    1.048760861  -2.520210859  -0.115872226
  C    0.652237058  -1.604645751   0.305219217
  O    1.379708626  -0.532038410  -0.371961382
  C    1.013610249   0.657545514  -0.068615884
  N    0.699418127   1.740571980   0.181330505

7.076_noHB__ethyne--methylcyanate_090.wfx

