%nprocs=4
%mem=2GB
#p hf aug-cc-pvdz output=wfx scf=(conver=6) int=(grid=ultrafine)

title

0 1
  H   -2.393608658  -1.079283453  -0.000000000
  H   -4.089394920  -0.348731589  -0.000000000
  H   -3.108512908   1.907742281   0.000000000
  H   -1.421114751   1.171193523   0.000000000
  C   -3.018073539  -0.196392641  -0.000000000
  C   -2.491589285   1.018755217   0.000000000
  H    1.732047709   0.864508674   2.146607049
  H    0.439061306  -1.250038948   2.052296941
  C    1.840970375   1.033869079   0.000000000
  C    1.471313521   0.429300751   1.192996603
  C    0.748458261  -0.756111377   1.139544075
  N    0.389941922  -1.346510546   0.000000000
  C    0.748458261  -0.756111377  -1.139544075
  C    1.471313521   0.429300751  -1.192996603
  H    0.439061306  -1.250038948  -2.052296941
  H    1.732047709   0.864508674  -2.146607049
  H    2.402105806   1.957678294   0.000000000

7.072_noHB__ethene--pyridine_105.wfx

