%nprocs=4
%mem=2GB
#p hf aug-cc-pvdz output=wfx scf=(conver=6) int=(grid=ultrafine)

title

0 1
  H    3.248284671  -1.180119597  -1.232706471
  H    4.063172067   0.469218733  -1.231786806
  H    4.063172067   0.469218733   1.231786806
  H    3.248284671  -1.180119597   1.232706471
  C    3.653323237  -0.354446731  -0.663106483
  C    3.653323237  -0.354446731   0.663106483
  H   -1.163710371   2.295582411   0.000000000
  H   -3.254295331  -1.455892986   0.000000000
  H   -3.288306930   1.021571683   0.000000000
  H    1.030987326  -1.369722004   0.000000000
  H    1.973260961   0.729936363   0.000000000
  H   -1.080112062  -2.642312025   0.000000000
  C   -2.329340044  -0.898371346   0.000000000
  C   -2.345458696   0.492732350   0.000000000
  C   -1.162104312   1.215413565   0.000000000
  C    0.058405354   0.544342855   0.000000000
  C    0.083286947  -0.849031045   0.000000000
  C   -1.109305834  -1.561614869   0.000000000
  O    1.192104144   1.298048801   0.000000000

7.071_noHB__ethene--phenol_085.wfx

