%nprocs=4
%mem=2GB
#p hf aug-cc-pvdz output=wfx scf=(conver=6) int=(grid=ultrafine)

title

0 1
H        1.6757058460        -1.8963508440         0.1679844940
C        0.7808292570        -1.2702112490         0.1677042020
H        0.0611743290        -1.7502852410        -0.4987341150
H        0.3691182460        -1.2013652130         1.1704884930
C        1.1222356020         0.0876281910        -0.3684766070
H        1.5606663360         0.0940741140        -1.3875900750
O        0.9511693980         1.1216502380         0.2215861080

7.078_noHB__methane--acetaldehyde_2.wfx

