%nprocs=4
%mem=2GB
#p hf aug-cc-pvdz output=wfx scf=(conver=6) int=(grid=ultrafine)

title

0 1
  C    2.373968967   0.260873410   0.000000000
  H    1.346633224   0.533549146   0.000000000
  C    3.530326310  -0.044469118   0.000000000
  H    4.555911182  -0.316694926   0.000000000
  H   -4.149305968   1.674833603   1.369176573
  H   -4.149305968   1.674833603  -1.369176573
  H   -3.749131231  -0.945875783   2.046772401
  H   -3.749131231  -0.945875783  -2.046772401
  C   -4.022372864   0.830060926  -0.716477434
  C   -4.022372864   0.830060926   0.716477434
  C   -3.827596015  -0.456988683   1.094252602
  O   -3.706982533  -1.256406655   0.000000000
  C   -3.827596015  -0.456988683  -1.094252602

7.075_noHB__ethyne--furan_200.wfx

