%nprocs=4
%mem=2GB
#p hf aug-cc-pvdz output=wfx scf=(conver=6) int=(grid=ultrafine)

title

0 1
  C   -2.005496180  -0.000000036   0.000000078
  H   -2.372892730  -0.523276936  -0.880612388
  H   -0.917696855  -0.000000175   0.000000683
  H   -2.372892965   1.024271103  -0.012865137
  H   -2.372893602  -0.500994273   0.893477144
  N    1.823825026  -0.000000146   0.000000247
  H    2.196473059   0.460253929  -0.820807747
  H    2.196480789   0.480713409   0.808992290
  H    2.196481050  -0.940964597   0.011810790

7.083_noHB__methane--ammonia_100.wfx

