%nprocs=4
%mem=2GB
#p hf aug-cc-pvdz output=wfx scf=(conver=6) int=(grid=ultrafine)

title

0 1
  C    2.676729044   0.042678606  -0.016916926
  H    3.005638071  -0.991090022  -0.097484004
  H    2.552608741   0.458866960  -1.014546491
  H    1.730694378   0.083921701   0.516905151
  H    3.426984942   0.617935734   0.520771564
  H   -0.879219882  -2.029313535   0.438711724
  H   -0.255093333  -1.201396361  -1.005129854
  H   -2.009331795  -1.298182729  -0.723723716
  H   -1.107478499   2.004193095   0.434432596
  H   -0.392660806   1.248713291  -1.007298194
  H   -2.146705434   1.147927478  -0.727273762
  C   -1.034356608  -1.190154698  -0.234773557
  O   -0.976013690  -0.011479045   0.537329086
  C   -1.166280825   1.151405938  -0.237263575

7.088_noHB__methane--dimethylether_105.wfx

