%nprocs=4
%mem=2GB
#p hf aug-cc-pvdz output=wfx scf=(conver=6) int=(grid=ultrafine)

title

0 1
  C   -2.005496180  -0.000000036   0.000000078
  H   -2.372892730  -0.523276936  -0.880612388
  H   -0.917696855  -0.000000175   0.000000683
  H   -2.372892965   1.024271103  -0.012865137
  H   -2.372893602  -0.500994273   0.893477144
  N    1.275520650  -0.000000158   0.000000268
  H    1.648168683   0.460253917  -0.820807726
  H    1.648176413   0.480713397   0.808992311
  H    1.648176674  -0.940964609   0.011810811

7.083_noHB__methane--ammonia_080.wfx

