%nprocs=4
%mem=2GB
#p hf aug-cc-pvdz output=wfx scf=(conver=6) int=(grid=ultrafine)

title

0 1
H       -0.7502631480        -2.0272611120         0.4378766560
C       -0.9053998740        -1.1881022750        -0.2356086250
H       -1.8803750610        -1.2961303060        -0.7245587840
H       -0.1261365990        -1.1993439380        -1.0059649220
O       -0.8470569560        -0.0094266220         0.5364940180
C       -1.0373240910         1.1534583610        -0.2380986430
H       -2.0177487000         1.1499799010        -0.7281088300
H       -0.2637040720         1.2507657140        -1.0081332620
H       -0.9785217650         2.0062455180         0.4335975280

7.088_noHB__methane--dimethylether_2.wfx

