%nprocs=4
%mem=2GB
#p hf aug-cc-pvdz output=wfx scf=(conver=6) int=(grid=ultrafine)

title

0 1
  C   -2.005496180  -0.000000036   0.000000078
  H   -2.372892730  -0.523276936  -0.880612388
  H   -0.917696855  -0.000000175   0.000000683
  H   -2.372892965   1.024271103  -0.012865137
  H   -2.372893602  -0.500994273   0.893477144
  N    1.960901120  -0.000000143   0.000000242
  H    2.333549153   0.460253932  -0.820807752
  H    2.333556883   0.480713412   0.808992285
  H    2.333557144  -0.940964594   0.011810785

7.083_noHB__methane--ammonia_105.wfx

