%nprocs=4
%mem=2GB
#p hf aug-cc-pvdz output=wfx scf=(conver=6) int=(grid=ultrafine)

title

0 1
  C    2.638128595   0.118839823   0.000000000
  H    3.582006850   0.658435734   0.000000000
  H    1.814793635   0.828343491   0.000000000
  H    2.584315645  -0.505660149  -0.889483776
  H    2.584315645  -0.505660149   0.889483776
  H   -2.522535535  -1.665003583   0.000000000
  H   -4.040412837  -1.886011158   0.885033299
  H   -4.040412837  -1.886011158  -0.885033299
  C   -3.587754226  -1.442616430   0.000000000
  C   -3.791832670  -0.003591349   0.000000000
  N   -3.946043599   1.134310761   0.000000000

7.082_noHB__methane--acetonitrile_200.wfx

