%nprocs=4
%mem=2GB
#p hf aug-cc-pvdz output=wfx scf=(conver=6) int=(grid=ultrafine)

title

0 1
  C    2.804339386   0.135533940   0.011380387
  H    2.092453971   0.225349579  -0.804746624
  H    2.859840465  -0.902027294   0.332572294
  H    2.487016297   0.757636631   0.845666389
  H    3.785884700   0.461707501  -0.323697915
  H   -1.976265624   1.113768423   1.359216704
  H   -1.253626931   2.068402306   0.039726913
  H   -0.245729931   1.392191413   1.341253750
  H   -0.561739576  -2.155765948   0.008934818
  H   -1.611916495  -1.511266854   1.294011825
  C   -1.112277494   1.219261836   0.701196410
  C   -0.910358578  -0.043408446  -0.105577075
  O   -0.891803663  -0.031189224  -1.313791763
  C   -0.728399641  -1.320709063   0.682298804
  H    0.116126220  -1.222228101   1.365452553

7.081_noHB__methane--acetone_105.wfx

