%nprocs=4
%mem=2GB
#p hf aug-cc-pvdz output=wfx scf=(conver=6) int=(grid=ultrafine)

title

0 1
  C    2.638128595   0.118839823   0.000000000
  H    3.582006850   0.658435734   0.000000000
  H    1.814793635   0.828343491   0.000000000
  H    2.584315645  -0.505660149  -0.889483776
  H    2.584315645  -0.505660149   0.889483776
  H    0.622169885  -1.523380093   0.000000000
  H   -0.895707417  -1.744387668   0.885033299
  H   -0.895707417  -1.744387668  -0.885033299
  C   -0.443048806  -1.300992940   0.000000000
  C   -0.647127250   0.138032141   0.000000000
  N   -0.801338179   1.275934251   0.000000000

7.082_noHB__methane--acetonitrile_085.wfx

