%nprocs=4
%mem=2GB
#p hf aug-cc-pvdz output=wfx scf=(conver=6) int=(grid=ultrafine)

title

0 1
  C    2.638128595   0.118839823   0.000000000
  H    3.582006850   0.658435734   0.000000000
  H    1.814793635   0.828343491   0.000000000
  H    2.584315645  -0.505660149  -0.889483776
  H    2.584315645  -0.505660149   0.889483776
  H    0.485443562  -1.529537636   0.000000000
  H   -1.032433740  -1.750545211   0.885033299
  H   -1.032433740  -1.750545211  -0.885033299
  C   -0.579775129  -1.307150483   0.000000000
  C   -0.783853573   0.131874598   0.000000000
  N   -0.938064502   1.269776708   0.000000000

7.082_noHB__methane--acetonitrile_090.wfx

