%nprocs=4
%mem=2GB
#p hf aug-cc-pvdz output=wfx scf=(conver=6) int=(grid=ultrafine)

title

0 1
  C   -2.774196742   0.066691549   0.020256021
  H   -2.988134350  -0.997513755  -0.049870540
  H   -3.708665633   0.622362606   0.004026729
  H   -2.156300318   0.370333887  -0.821000808
  H   -2.249190540   0.271898114   0.950514090
  H    0.458855360   1.605228954   0.913254727
  H    0.172039296  -1.928271252  -0.918346113
  H    1.061450562  -1.833512303   0.623501726
  H   -0.689341165  -1.697384254   0.622000859
  O    0.333891959   0.629108019  -1.146010965
  C    0.319570877   0.029613847  -0.104378897
  O    0.399126135   0.657169479   1.094260838
  C    0.210395283  -1.457879402   0.057511844

7.080_noHB__methane--aceticacid_085.wfx

