%nprocs=4
%mem=2GB
#p hf aug-cc-pvdz output=wfx scf=(conver=6) int=(grid=ultrafine)

title

0 1
  C   -2.005496180  -0.000000036   0.000000078
  H   -2.372892730  -0.523276936  -0.880612388
  H   -0.917696855  -0.000000175   0.000000683
  H   -2.372892965   1.024271103  -0.012865137
  H   -2.372893602  -0.500994273   0.893477144
  N    1.412596744  -0.000000155   0.000000263
  H    1.785244777   0.460253920  -0.820807731
  H    1.785252507   0.480713400   0.808992306
  H    1.785252768  -0.940964606   0.011810806

7.083_noHB__methane--ammonia_085.wfx

