%nprocs=4
%mem=2GB
#p hf aug-cc-pvdz output=wfx scf=(conver=6) int=(grid=ultrafine)

title

0 1
C        2.6767290440         0.0426786060        -0.0169169260
H        3.0056380710        -0.9910900220        -0.0974840040
H        2.5526087410         0.4588669600        -1.0145464910
H        1.7306943780         0.0839217010         0.5169051510
H        3.4269849420         0.6179357340         0.5207715640

7.088_noHB__methane--dimethylether_1.wfx

