%nprocs=4
%mem=2GB
#p hf aug-cc-pvdz output=wfx scf=(conver=6) int=(grid=ultrafine)

title

0 1
C        2.6992636770        -0.0272500570         0.0014944730
H        1.7204495390        -0.0456185810        -0.4728530320
H        2.5992395360        -0.2571320560         1.0605307830
H        3.3478496070        -0.7658387560        -0.4647429250
H        3.1420590550         0.9603308340        -0.1097787710

7.085_noHB__methane--dimethylamine_1.wfx

