%nprocs=4
%mem=2GB
#p hf aug-cc-pvdz output=wfx scf=(conver=6) int=(grid=ultrafine)

title

0 1
  C    2.733614165   0.000000000   0.000000000
  H    2.101553552  -0.300482483   0.831773844
  H    3.363356412   0.833910942   0.302045609
  H    2.101553552   0.300482483  -0.831773844
  H    3.363356412  -0.833910942  -0.302045609
  H   -1.790311198   1.889459894   0.813917043
  H   -0.957376740   2.488998145  -0.644254062
  H   -0.007096284   1.814184079   0.706521903
  H   -0.957376740  -2.488998145   0.644254062
  H   -1.790311198  -1.889459894  -0.813917043
  H   -0.007096284  -1.814184079  -0.706521903
  C   -0.940256373   1.739633170   0.145434681
  O   -1.033780784   0.504788250  -0.528265696
  O   -1.033780784  -0.504788250   0.528265696
  C   -0.940256373  -1.739633170  -0.145434681

7.089_noHB__methane--dimethylperoxide_110.wfx

