%nprocs=4
%mem=2GB
#p hf aug-cc-pvdz output=wfx scf=(conver=6) int=(grid=ultrafine)

title

0 1
  C    2.638128595   0.118839823   0.000000000
  H    3.582006850   0.658435734   0.000000000
  H    1.814793635   0.828343491   0.000000000
  H    2.584315645  -0.505660149  -0.889483776
  H    2.584315645  -0.505660149   0.889483776
  H   -1.155272309  -1.603428153   0.000000000
  H   -2.673149611  -1.824435728   0.885033299
  H   -2.673149611  -1.824435728  -0.885033299
  C   -2.220491000  -1.381041000   0.000000000
  C   -2.424569444   0.057984081   0.000000000
  N   -2.578780373   1.195886191   0.000000000

7.082_noHB__methane--acetonitrile_150.wfx

