%nprocs=4
%mem=2GB
#p hf aug-cc-pvdz output=wfx scf=(conver=6) int=(grid=ultrafine)

title

0 1
C       -2.7741967420         0.0666915490         0.0202560210
H       -3.7086656330         0.6223626060         0.0040267290
H       -2.9881343500        -0.9975137550        -0.0498705400
H       -2.1563003180         0.3703338870        -0.8210008080
H       -2.2491905400         0.2718981140         0.9505140900

7.080_noHB__methane--aceticacid_1.wfx

