%nprocs=4
%mem=2GB
#p hf aug-cc-pvdz output=wfx scf=(conver=6) int=(grid=ultrafine)

title

0 1
  C   -2.652467755  -0.114408337   0.000000000
  H   -3.578150085  -0.684638837   0.000000000
  H   -2.618545260   0.511555195  -0.889332091
  H   -2.618545260   0.511555195   0.889332091
  H   -1.806967473  -0.797276539   0.000000000
  H    0.472371657   1.478556124   0.000000000
  H    1.990522552   1.714121658  -0.886456565
  H    1.990522552   1.714121658   0.886456565
  C    1.917574086  -1.280497714   0.000000000
  N    1.754034803  -0.128751748   0.000000000
  C    1.540255800   1.272451647   0.000000000

7.096_noHB__methane--methylisocyanide_125.wfx

