%nprocs=4
%mem=2GB
#p hf aug-cc-pvdz output=wfx scf=(conver=6) int=(grid=ultrafine)

title

0 1
C       -2.6524677550        -0.1144083370         0.0000000000
H       -3.5781500850        -0.6846388370         0.0000000000
H       -1.8069674730        -0.7972765390         0.0000000000
H       -2.6185452600         0.5115551950        -0.8893320910
H       -2.6185452600         0.5115551950         0.8893320910

7.096_noHB__methane--methylisocyanide_1.wfx

