%nprocs=4
%mem=2GB
#p hf aug-cc-pvdz output=wfx scf=(conver=6) int=(grid=ultrafine)

title

0 1
  C   -2.899895967   0.000000000  -0.275001914
  H   -2.589059880   0.000000000   0.766649290
  H   -3.495177086   0.887574888  -0.477221942
  H   -3.495177086  -0.887574888  -0.477221942
  H   -2.017007216   0.000000000  -0.908616253
  H    4.183898328  -1.368812499  -1.405751505
  H    4.183898328   1.368812499  -1.405751505
  H    3.368024970  -2.046570800   1.115438830
  H    3.368024970   2.046570800   1.115438830
  C    3.922871928   0.716146928  -0.592300377
  C    3.922871928  -0.716146928  -0.592300377
  C    3.522956276  -1.093786153   0.645621623
  O    3.275938432   0.000000000   1.416453205
  C    3.522956276   1.093786153   0.645621623

7.090_noHB__methane--furan_200.wfx

