%nprocs=4
%mem=2GB
#p hf aug-cc-pvdz output=wfx scf=(conver=6) int=(grid=ultrafine)

title

0 1
H       -0.0089501250         1.6870592440        -0.3599814660
C       -0.8169396060         1.1957905080         0.1829700410
N       -1.0447833760        -0.1043750420        -0.4807356640
H       -1.7202569990         1.7879055480         0.0302297640
H       -0.5809786590         1.0751992080         1.2387619940
O       -0.9316538420        -1.0513878420         0.2456062700

7.098_noHB__methane--nitrosomethane_2.wfx

