%nprocs=4
%mem=2GB
#p hf aug-cc-pvdz output=wfx scf=(conver=6) int=(grid=ultrafine)

title

0 1
  C   -2.707500914   0.152700502   0.021221419
  H   -2.255478236  -0.370333848   0.861152317
  H   -3.642717144   0.604174945   0.343003191
  H   -2.033035959   0.929944429  -0.329112565
  H   -2.910480896  -0.550799334  -0.783893846
  H    0.273912533  -1.479720537  -0.913580519
  H    1.214948709  -2.574941971   0.137919886
  H    2.041556286  -1.646485629  -1.145684601
  C    1.228674828  -1.649175697  -0.424213248
  O    1.456595976  -0.605034857   0.566101032
  C    1.507037147   0.591643752   0.103210371
  N    1.555786564   1.679777256  -0.279563474

7.095_noHB__methane--methylcyanate_125.wfx

