%nprocs=4
%mem=2GB
#p hf aug-cc-pvdz output=wfx scf=(conver=6) int=(grid=ultrafine)

title

0 1
H        0.3775922480        -0.1881510590         1.7779339850
C       -0.4835203040         0.4179102180         1.4932554140
H       -1.3600163410        -0.0393833400         1.9551424930
C       -0.6294362080         0.4564317610        -0.0107298660
H       -0.3559139330         1.4133067510         1.9108978270
N       -0.7810811770        -0.5675763350        -0.7442000620
C       -0.5728958190         1.8094335110        -0.6584906140
C       -0.8180513250        -1.8798910580        -0.1228133700
H       -1.3533479380         2.4600437680        -0.2574678850
H       -0.6938686300         1.7189864470        -1.7337955340
H        0.3822533500         2.2931243260        -0.4407957960
H       -1.0131588040        -2.6308291610        -0.8843557750
H       -1.5977502090        -1.9589840660         0.6411680740
H        0.1349910670        -2.1248754910         0.3564763400

7.099_noHB__methane--Nmethyl2propanimine_2.wfx

