%nprocs=4
%mem=2GB
#p hf aug-cc-pvdz output=wfx scf=(conver=6) int=(grid=ultrafine)

title

0 1
  C    2.597862197  -0.041207383  -0.019106708
  H    2.707053998   0.995989708   0.290143529
  H    2.154407162  -0.083133795  -1.011335865
  H    3.576738273  -0.513723253  -0.042457175
  H    1.957571422  -0.567907711   0.683927823
  H   -0.008950125   1.687059244  -0.359981466
  H   -1.720256999   1.787905548   0.030229764
  H   -0.580978659   1.075199208   1.238761994
  C   -0.816939606   1.195790508   0.182970041
  N   -1.044783376  -0.104375042  -0.480735664
  O   -0.931653842  -1.051387842   0.245606270

7.098_noHB__methane--nitrosomethane_100.wfx

