%nprocs=4
%mem=2GB
#p hf aug-cc-pvdz output=wfx scf=(conver=6) int=(grid=ultrafine)

title

0 1
  C    2.690405592  -0.119444051   0.020280636
  H    2.758404145  -0.915372922  -0.718383740
  H    2.284910441   0.775811591  -0.444744354
  H    3.683099455   0.093699161   0.409116102
  H    2.041016112  -0.431028104   0.834775779
  H    0.554305445  -1.675300466  -0.840906833
  H   -1.200906687  -1.540553881  -1.106792553
  H   -0.576086647  -2.507239504   0.239016968
  C   -0.417686091  -1.611031879  -0.350196330
  N   -0.470274238  -0.475852207   0.583545801
  N   -0.318293120   0.632390089   0.087135798
  N   -0.188359601   1.699894081  -0.258145585

7.094_noHB__methane--methylazide_085.wfx

