%nprocs=4
%mem=2GB
#p hf aug-cc-pvdz output=wfx scf=(conver=6) int=(grid=ultrafine)

title

0 1
  C   -2.899895967   0.000000000  -0.275001914
  H   -2.589059880   0.000000000   0.766649290
  H   -3.495177086   0.887574888  -0.477221942
  H   -3.495177086  -0.887574888  -0.477221942
  H   -2.017007216   0.000000000  -0.908616253
  H    1.980657609  -1.368812499  -1.614531063
  H    1.980657609   1.368812499  -1.614531063
  H    1.164784251  -2.046570800   0.906659272
  H    1.164784251   2.046570800   0.906659272
  C    1.719631209   0.716146928  -0.801079935
  C    1.719631209  -0.716146928  -0.801079935
  C    1.319715557  -1.093786153   0.436842065
  O    1.072697713   0.000000000   1.207673647
  C    1.319715557   1.093786153   0.436842065

7.090_noHB__methane--furan_125.wfx

