%nprocs=4
%mem=2GB
#p hf aug-cc-pvdz output=wfx scf=(conver=6) int=(grid=ultrafine)

title

0 1
C       -2.8998959670         0.0000000000        -0.2750019140
H       -3.4951770860        -0.8875748880        -0.4772219420
H       -3.4951770860         0.8875748880        -0.4772219420
H       -2.0170072160         0.0000000000        -0.9086162530
H       -2.5890598800         0.0000000000         0.7666492900

7.090_noHB__methane--furan_1.wfx

