%nprocs=4
%mem=2GB
#p hf aug-cc-pvdz output=wfx scf=(conver=6) int=(grid=ultrafine)

title

0 1
H        1.1615053890        -1.7637083700         0.9029992560
C        0.6807617050        -1.4088152050         0.0000000000
H        1.1615053890        -1.7637083700        -0.9029992560
H       -0.3727559820        -1.6744031120         0.0000000000
N        0.7360589570         0.0861243210         0.0000000000
O        0.7406832930         0.6423930350        -1.0829019360
O        0.7406832930         0.6423930350         1.0829019360

7.097_noHB__methane--nitromethane_2.wfx

