%nprocs=4
%mem=2GB
#p hf aug-cc-pvdz output=wfx scf=(conver=6) int=(grid=ultrafine)

title

0 1
  C   -2.342605602  -0.081372113   0.000000000
  H   -2.070275995   0.479722847   0.891876296
  H   -3.417186293  -0.245571387   0.000000000
  H   -2.070275995   0.479722847  -0.891876296
  H   -1.831188130  -1.040900697   0.000000000
  O    0.681829353   0.707227803   0.000000000
  H   -0.274213636   0.787439462   0.000000000
  C    1.020980912  -0.671549575   0.000000000
  H    2.106789337  -0.730643399   0.000000000
  H    0.646956287  -1.186435382  -0.889476966
  H    0.646956287  -1.186435382   0.889476966

7.091_noHB__methane--methanol_085.wfx

