%nprocs=4
%mem=2GB
#p hf aug-cc-pvdz output=wfx scf=(conver=6) int=(grid=ultrafine)

title

0 1
  C   -2.751375999   0.024385361   0.000000000
  H   -2.174433721   0.269064997  -0.888769303
  H   -2.174433721   0.269064997   0.888769303
  H   -3.670464723   0.605006968   0.000000000
  H   -3.000148848  -1.035028735   0.000000000
  H    1.431901159  -1.766169340   0.902999256
  H    1.431901159  -1.766169340  -0.902999256
  H   -0.102360212  -1.676864082   0.000000000
  C    0.951157475  -1.411276175   0.000000000
  N    1.006454727   0.083663351   0.000000000
  O    1.011079063   0.639932065   1.082901936
  O    1.011079063   0.639932065  -1.082901936

7.097_noHB__methane--nitromethane_110.wfx

