%nprocs=4
%mem=2GB
#p hf aug-cc-pvdz output=wfx scf=(conver=6) int=(grid=ultrafine)

title

0 1
  C   -2.652467755  -0.114408337   0.000000000
  H   -3.578150085  -0.684638837   0.000000000
  H   -2.618545260   0.511555195  -0.889332091
  H   -2.618545260   0.511555195   0.889332091
  H   -1.806967473  -0.797276539   0.000000000
  H   -0.210263249   1.449101838   0.000000000
  H    1.307887646   1.684667372  -0.886456565
  H    1.307887646   1.684667372   0.886456565
  C    1.234939180  -1.309952000   0.000000000
  N    1.071399897  -0.158206034   0.000000000
  C    0.857620894   1.242997361   0.000000000

7.096_noHB__methane--methylisocyanide_100.wfx

