%nprocs=4
%mem=2GB
#p hf aug-cc-pvdz output=wfx scf=(conver=6) int=(grid=ultrafine)

title

0 1
C        2.9005559600        -0.1656432030        -0.0846714230
H        2.0886270660        -0.3146954650        -0.7911605020
H        2.8858268000        -0.9585892710         0.6599382220
H        2.7796750390         0.7954908440         0.4101605430
H        3.8527656920        -0.1835125940        -0.6093030180

7.099_noHB__methane--Nmethyl2propanimine_1.wfx

