%nprocs=4
%mem=2GB
#p hf aug-cc-pvdz output=wfx scf=(conver=6) int=(grid=ultrafine)

title

0 1
  C   -2.899895967   0.000000000  -0.275001914
  H   -2.589059880   0.000000000   0.766649290
  H   -3.495177086   0.887574888  -0.477221942
  H   -3.495177086  -0.887574888  -0.477221942
  H   -2.017007216   0.000000000  -0.908616253
  H    0.952478607  -1.368812499  -1.711961523
  H    0.952478607   1.368812499  -1.711961523
  H    0.136605249  -2.046570800   0.809228812
  H    0.136605249   2.046570800   0.809228812
  C    0.691452207   0.716146928  -0.898510395
  C    0.691452207  -0.716146928  -0.898510395
  C    0.291536555  -1.093786153   0.339411605
  O    0.044518711   0.000000000   1.110243187
  C    0.291536555   1.093786153   0.339411605

7.090_noHB__methane--furan_090.wfx

