%nprocs=4
%mem=2GB
#p hf aug-cc-pvdz output=wfx scf=(conver=6) int=(grid=ultrafine)

title

0 1
C        2.8451044730        -0.0040921860        -0.0205757460
H        2.2338493570        -0.3248624230         0.8197026920
H        2.2180770520         0.1244241800        -0.8993415220
H        3.3286059740         0.9395726210         0.2217531580
H        3.6050739470        -0.7551997480        -0.2226745920

7.092_noHB__methane--methylacetate_1.wfx

