%nprocs=4
%mem=2GB
#p hf aug-cc-pvdz output=wfx scf=(conver=6) int=(grid=ultrafine)

title

0 1
  C   -2.707500914   0.152700502   0.021221419
  H   -2.255478236  -0.370333848   0.861152317
  H   -3.642717144   0.604174945   0.343003191
  H   -2.033035959   0.929944429  -0.329112565
  H   -2.910480896  -0.550799334  -0.783893846
  H   -0.927078398  -1.411943322  -0.903995184
  H    0.013957778  -2.507164756   0.147505221
  H    0.840565355  -1.578708414  -1.136099266
  C    0.027683897  -1.581398482  -0.414627913
  O    0.255605045  -0.537257642   0.575686367
  C    0.306046216   0.659420967   0.112795706
  N    0.354795633   1.747554471  -0.269978139

7.095_noHB__methane--methylcyanate_080.wfx

