%nprocs=4
%mem=2GB
#p hf aug-cc-pvdz output=wfx scf=(conver=6) int=(grid=ultrafine)

title

0 1
  C   -2.342605602  -0.081372113   0.000000000
  H   -2.070275995   0.479722847   0.891876296
  H   -3.417186293  -0.245571387   0.000000000
  H   -2.070275995   0.479722847  -0.891876296
  H   -1.831188130  -1.040900697   0.000000000
  O    2.206919833   0.760239531   0.000000000
  H    1.250876844   0.840451190   0.000000000
  C    2.546071392  -0.618537847   0.000000000
  H    3.631879817  -0.677631671   0.000000000
  H    2.172046767  -1.133423654  -0.889476966
  H    2.172046767  -1.133423654   0.889476966

7.091_noHB__methane--methanol_150.wfx

