%nprocs=4
%mem=2GB
#p hf aug-cc-pvdz output=wfx scf=(conver=6) int=(grid=ultrafine)

title

0 1
N       -1.2108802860        -0.7154601810         0.0000000000
H       -1.6867175430        -1.0836590360        -0.8125221140
H       -1.6867175430        -1.0836590360         0.8125221140
C       -1.2300968140         0.7473427750         0.0000000000
H       -0.6957487600         1.1126206620        -0.8759683960
H       -0.6957487600         1.1126206620         0.8759683960
H       -2.2295610520         1.1971094420         0.0000000000

7.093_noHB__methane--methylamine_2.wfx

