%nprocs=4
%mem=2GB
#p hf aug-cc-pvdz output=wfx scf=(conver=6) int=(grid=ultrafine)

title

0 1
H       -0.2102632490         1.4491018380         0.0000000000
C        0.8576208940         1.2429973610         0.0000000000
N        1.0713998970        -0.1582060340         0.0000000000
H        1.3078876460         1.6846673720        -0.8864565650
H        1.3078876460         1.6846673720         0.8864565650
C        1.2349391800        -1.3099520000         0.0000000000

7.096_noHB__methane--methylisocyanide_2.wfx

