%nprocs=4
%mem=2GB
#p hf aug-cc-pvdz output=wfx scf=(conver=6) int=(grid=ultrafine)

title

0 1
  C   -2.707500914   0.152700502   0.021221419
  H   -2.255478236  -0.370333848   0.861152317
  H   -3.642717144   0.604174945   0.343003191
  H   -2.033035959   0.929944429  -0.329112565
  H   -2.910480896  -0.550799334  -0.783893846
  H   -0.793634961  -1.419474124  -0.905060221
  H    0.147401215  -2.514695558   0.146440184
  H    0.974008792  -1.586239216  -1.137164303
  C    0.161127334  -1.588929284  -0.415692950
  O    0.389048482  -0.544788444   0.574621330
  C    0.439489653   0.651890165   0.111730669
  N    0.488239070   1.740023669  -0.271043176

7.095_noHB__methane--methylcyanate_085.wfx

