%nprocs=4
%mem=2GB
#p hf aug-cc-pvdz output=wfx scf=(conver=6) int=(grid=ultrafine)

title

0 1
O        1.0337733100         0.7194612790         0.0000000000
C        1.3729248690        -0.6593160990         0.0000000000
H        0.0777303210         0.7996729380         0.0000000000
H        0.9989002440        -1.1742019060        -0.8894769660
H        0.9989002440        -1.1742019060         0.8894769660
H        2.4587332940        -0.7184099230         0.0000000000

7.091_noHB__methane--methanol_2.wfx

