%nprocs=4
%mem=2GB
#p hf aug-cc-pvdz output=wfx scf=(conver=6) int=(grid=ultrafine)

title

0 1
  C   -2.707500914   0.152700502   0.021221419
  H   -2.255478236  -0.370333848   0.861152317
  H   -3.642717144   0.604174945   0.343003191
  H   -2.033035959   0.929944429  -0.329112565
  H   -2.910480896  -0.550799334  -0.783893846
  H    2.275564085  -1.592682562  -0.929556078
  H    3.216600261  -2.687903996   0.121944327
  H    4.043207838  -1.759447654  -1.161660160
  C    3.230326380  -1.762137722  -0.440188807
  O    3.458247528  -0.717996882   0.550125473
  C    3.508688699   0.478681727   0.087234812
  N    3.557438116   1.566815231  -0.295539033

7.095_noHB__methane--methylcyanate_200.wfx

