%nprocs=4
%mem=2GB
#p hf aug-cc-pvdz output=wfx scf=(conver=6) int=(grid=ultrafine)

title

0 1
  C   -2.751375999   0.024385361   0.000000000
  H   -2.174433721   0.269064997  -0.888769303
  H   -2.174433721   0.269064997   0.888769303
  H   -3.670464723   0.605006968   0.000000000
  H   -3.000148848  -1.035028735   0.000000000
  H    1.026307504  -1.762477885   0.902999256
  H    1.026307504  -1.762477885  -0.902999256
  H   -0.507953867  -1.673172627   0.000000000
  C    0.545563820  -1.407584720   0.000000000
  N    0.600861072   0.087354806   0.000000000
  O    0.605485408   0.643623520   1.082901936
  O    0.605485408   0.643623520  -1.082901936

7.097_noHB__methane--nitromethane_095.wfx

