%nprocs=4
%mem=2GB
#p hf aug-cc-pvdz output=wfx scf=(conver=6) int=(grid=ultrafine)

title

0 1
  C   -2.751375999   0.024385361   0.000000000
  H   -2.174433721   0.269064997  -0.888769303
  H   -2.174433721   0.269064997   0.888769303
  H   -3.670464723   0.605006968   0.000000000
  H   -3.000148848  -1.035028735   0.000000000
  H    0.620713850  -1.758786429   0.902999256
  H    0.620713850  -1.758786429  -0.902999256
  H   -0.913547521  -1.669481171   0.000000000
  C    0.139970166  -1.403893264   0.000000000
  N    0.195267418   0.091046262   0.000000000
  O    0.199891754   0.647314976   1.082901936
  O    0.199891754   0.647314976  -1.082901936

7.097_noHB__methane--nitromethane_080.wfx

