%nprocs=4
%mem=2GB
#p hf aug-cc-pvdz output=wfx scf=(conver=6) int=(grid=ultrafine)

title

0 1
  C    2.900555960  -0.165643203  -0.084671423
  H    2.088627066  -0.314695465  -0.791160502
  H    2.779675039   0.795490844   0.410160543
  H    3.852765692  -0.183512594  -0.609303018
  H    2.885826800  -0.958589271   0.659938222
  H   -1.045566427  -0.106925426   1.819217356
  H   -1.779072608   1.494532384   1.952181198
  H   -2.783175016   0.041842293   1.996425864
  H   -2.776506613   2.541269401  -0.216184514
  H   -1.288167608  -2.043649858   0.397759711
  H   -3.020908884  -1.877758433   0.682451445
  H   -2.436317479  -2.549603528  -0.843072404
  H   -1.040905325   2.374349959  -0.399512425
  H   -2.117027305   1.800212080  -1.692512163
  C   -2.052594883   0.537657394   0.030553505
  N   -2.204239852  -0.486350702  -0.702916691
  C   -2.241210000  -1.798665425  -0.081529999
  C   -1.996054494   1.890659144  -0.617207243
  C   -1.906678979   0.499135851   1.534538785

7.099_noHB__methane--Nmethyl2propanimine_150.wfx

