%nprocs=4
%mem=2GB
#p hf aug-cc-pvdz output=wfx scf=(conver=6) int=(grid=ultrafine)

title

0 1
  C    2.597862197  -0.041207383  -0.019106708
  H    2.707053998   0.995989708   0.290143529
  H    2.154407162  -0.083133795  -1.011335865
  H    3.576738273  -0.513723253  -0.042457175
  H    1.957571422  -0.567907711   0.683927823
  H    0.278023898   1.682480347  -0.362114742
  H   -1.433282976   1.783326651   0.028096488
  H   -0.294004636   1.070620311   1.236628718
  C   -0.529965583   1.191211611   0.180836765
  N   -0.757809353  -0.108953939  -0.482868940
  O   -0.644679819  -1.055966739   0.243472994

7.098_noHB__methane--nitrosomethane_090.wfx

