%nprocs=4
%mem=2GB
#p hf aug-cc-pvdz output=wfx scf=(conver=6) int=(grid=ultrafine)

title

0 1
  C   -2.342605602  -0.081372113   0.000000000
  H   -2.070275995   0.479722847   0.891876296
  H   -3.417186293  -0.245571387   0.000000000
  H   -2.070275995   0.479722847  -0.891876296
  H   -1.831188130  -1.040900697   0.000000000
  O    1.620346572   0.739850405   0.000000000
  H    0.664303583   0.820062064   0.000000000
  C    1.959498131  -0.638926973   0.000000000
  H    3.045306556  -0.698020797   0.000000000
  H    1.585473506  -1.153812780  -0.889476966
  H    1.585473506  -1.153812780   0.889476966

7.091_noHB__methane--methanol_125.wfx

