%nprocs=4
%mem=2GB
#p hf aug-cc-pvdz output=wfx scf=(conver=6) int=(grid=ultrafine)

title

0 1
H       -2.6695771580         0.0754561070        -0.3962983550
C       -1.7253072310         0.0703649090        -0.9670625630
H       -1.7430479580        -0.7852641550        -1.6409850830
H       -1.6898495590         0.9777410040        -1.5687204010
N       -0.5551181150         0.0000572000        -0.1125312140
C       -0.5202458100        -1.2335026990         0.6501638200
C       -0.4478172740         1.1629145750         0.7482117180
H       -0.5456698630        -2.0872280420        -0.0259037360
H       -1.3685266490        -1.3249737540         1.3495260930
H        0.4016718840        -1.2842175540         1.2279247940
H       -1.2905749250         1.2477375990         1.4550043010
H       -0.4203912050         2.0688892800         0.1440537890
H        0.4743219900         1.1110239550         1.3255142330

7.103_noHB__methane--trimethylamine_2.wfx

