%nprocs=4
%mem=2GB
#p hf aug-cc-pvdz output=wfx scf=(conver=6) int=(grid=ultrafine)

title

0 1
  O    1.575104712  -0.196099628   0.675572509
  H    1.025324259   0.548163264   0.934505936
  C    2.167596818   0.104276079  -0.581740758
  H    2.751431393  -0.765485194  -0.873796123
  H    2.835908572   0.966563815  -0.521148887
  H    1.414733901   0.297665666  -1.350495813
  H   -1.134319194  -1.560753173   0.125701319
  H   -2.379180138  -1.491556359  -1.146159479
  H   -2.860557370  -1.570355488   0.558835024
  C   -2.015817114   1.393687238   0.009672847
  N   -2.092761475   0.236053840  -0.063397205
  C   -2.119814938  -1.181568917  -0.136288726

7.105_noHB__methanol--methylisocyanide_125.wfx

