%nprocs=4
%mem=2GB
#p hf aug-cc-pvdz output=wfx scf=(conver=6) int=(grid=ultrafine)

title

0 1
  C    2.977538070  -0.194682012  -0.335719972
  H    2.111665543  -0.540764680  -0.894158234
  H    3.510199312  -1.049273532   0.075333251
  H    3.639946144   0.359689824  -0.996696197
  H    2.643688371   0.450093288   0.472642158
  H   -0.843425293  -2.378945087   0.456524044
  H   -0.185622940  -0.833345196   2.281345601
  C   -0.979260097  -0.794553839  -0.999062187
  C   -0.745534605  -1.320646600   0.263280791
  C   -0.377341416  -0.454005407   1.285023066
  N   -0.235709864   0.860289764   1.118366486
  C   -0.461228230   1.353960970  -0.098426538
  C   -0.833414844   0.572553437  -1.185453542
  H   -0.336956230   2.424085122  -0.211201271
  H   -1.001870862   1.027960089  -2.150425955
  H   -1.266391503  -1.436218419  -1.820151480

7.102_noHB__methane--pyridine_100.wfx

