%nprocs=4
%mem=2GB
#p hf aug-cc-pvdz output=wfx scf=(conver=6) int=(grid=ultrafine)

title

0 1
  C   -1.846101358   0.005221557   0.000000000
  H   -1.398657259  -0.428951161  -0.891998789
  H   -2.911955847  -0.208682023   0.000000000
  H   -1.398657259  -0.428951161   0.891998789
  H   -1.696249032   1.082514894   0.000000000
  O    4.016645592  -0.061134380   0.000000000
  H    4.236038316   0.873483001   0.000000000
  H    3.056474435  -0.091915701   0.000000000

7.104_noHB__methane--water_200.wfx

