%nprocs=4
%mem=2GB
#p hf aug-cc-pvdz output=wfx scf=(conver=6) int=(grid=ultrafine)

title

0 1
  C    2.977538070  -0.194682012  -0.335719972
  H    2.111665543  -0.540764680  -0.894158234
  H    3.510199312  -1.049273532   0.075333251
  H    3.639946144   0.359689824  -0.996696197
  H    2.643688371   0.450093288   0.472642158
  H   -1.138854188  -2.359617480   0.489837171
  H   -0.481051835  -0.814017589   2.314658728
  C   -1.274688992  -0.775226232  -0.965749060
  C   -1.040963500  -1.301318993   0.296593918
  C   -0.672770311  -0.434677800   1.318336193
  N   -0.531138759   0.879617371   1.151679613
  C   -0.756657125   1.373288577  -0.065113411
  C   -1.128843739   0.591881044  -1.152140415
  H   -0.632385125   2.443412729  -0.177888144
  H   -1.297299757   1.047287696  -2.117112828
  H   -1.561820398  -1.416890812  -1.786838353

7.102_noHB__methane--pyridine_110.wfx

