%nprocs=4
%mem=2GB
#p hf aug-cc-pvdz output=wfx scf=(conver=6) int=(grid=ultrafine)

title

0 1
C       -1.6450832410        -1.1863941240         0.6545824260
H       -2.5565166860        -1.3988327370         0.1005003700
C       -0.8209904310        -0.1876187200        -0.1303431760
H       -1.9034264660        -0.8489037250         1.6568327100
H       -1.0810485840        -2.1151184040         0.7287244120
O       -0.5521068170        -0.3635354840        -1.3059357900
N       -0.3985585370         0.9004005510         0.5691594700
H       -0.6333452350         0.9607077120         1.5426633760
C        0.4455228690         1.9265977030        -0.0084619930
H        0.0370171630         2.9165758250         0.1905606790
H        0.4793842180         1.7627741010        -1.0808883100
H        1.4618488460         1.8755620900         0.3842130050

7.100_noHB__methane--Nmethylacetamide_2.wfx

