%nprocs=4
%mem=2GB
#p hf aug-cc-pvdz output=wfx scf=(conver=6) int=(grid=ultrafine)

title

0 1
O        1.5751047120        -0.1960996280         0.6755725090
C        2.1675968180         0.1042760790        -0.5817407580
H        1.0253242590         0.5481632640         0.9345059360
H        2.7514313930        -0.7654851940        -0.8737961230
H        1.4147339010         0.2976656660        -1.3504958130
H        2.8359085720         0.9665638150        -0.5211488870

7.105_noHB__methanol--methylisocyanide_1.wfx

