%nprocs=4
%mem=2GB
#p hf aug-cc-pvdz output=wfx scf=(conver=6) int=(grid=ultrafine)

title

0 1
  O    1.575104712  -0.196099628   0.675572509
  H    1.025324259   0.548163264   0.934505936
  C    2.167596818   0.104276079  -0.581740758
  H    2.751431393  -0.765485194  -0.873796123
  H    2.835908572   0.966563815  -0.521148887
  H    1.414733901   0.297665666  -1.350495813
  H   -3.040419221  -1.534091529   0.061561052
  H   -4.285280165  -1.464894715  -1.210299746
  H   -4.766657397  -1.543693844   0.494694757
  C   -3.921917141   1.420348882  -0.054467420
  N   -3.998861502   0.262715484  -0.127537472
  C   -4.025914965  -1.154907273  -0.200428993

7.105_noHB__methanol--methylisocyanide_200.wfx

