%nprocs=4
%mem=2GB
#p hf aug-cc-pvdz output=wfx scf=(conver=6) int=(grid=ultrafine)

title

0 1
N        1.8717620330         0.0109447100        -0.7068752230
H        2.6635436290        -0.1161590450        -1.3229139290
H        1.5220270420         0.9471325770        -0.8659989690
C        2.2712859590        -0.1580275160         0.6925270300
H        2.6454114350        -1.1705858750         0.8390741660
H        3.0409843900         0.5405502380         1.0371204710
H        1.3980962110        -0.0404230530         1.3324036730

7.106_noHB__methylamine--methylazide_1.wfx

