%nprocs=4
%mem=2GB
#p hf aug-cc-pvdz output=wfx scf=(conver=6) int=(grid=ultrafine)

title

0 1
C        3.0564625170         0.0001466020        -0.3425051660
H        1.9962426810        -0.0129814170        -0.5859007890
H        3.5886248580        -0.7065154270        -0.9757088540
H        3.1968620790        -0.2782663280         0.7001957080
H        3.4574206060         0.9987167810        -0.5031641670

7.103_noHB__methane--trimethylamine_1.wfx

