%nprocs=4
%mem=2GB
#p hf aug-cc-pvdz output=wfx scf=(conver=6) int=(grid=ultrafine)

title

0 1
O        2.1176462660        -0.0639710090         0.0000000000
H        1.5667069600         0.7250295230         0.0000000000
H        3.0225959910         0.2549239810         0.0000000000

7.113_noHB__water--methylisocyanide_1.wfx

