%nprocs=4
%mem=2GB
#p hf aug-cc-pvdz output=wfx scf=(conver=6) int=(grid=ultrafine)

title

0 1
  O    2.117646266  -0.063971009   0.000000000
  H    1.566706960   0.725029523   0.000000000
  H    3.022595991   0.254923981   0.000000000
  H   -1.572650586  -1.583220761  -0.887150416
  H   -1.572650586  -1.583220761   0.887150416
  H   -0.030872265  -1.550873163   0.000000000
  C   -1.044854336   1.369507384   0.000000000
  N   -1.080040965   0.207699380   0.000000000
  C   -1.064185990  -1.212470016   0.000000000

7.113_noHB__water--methylisocyanide_105.wfx

