%nprocs=4
%mem=2GB
#p hf aug-cc-pvdz output=wfx scf=(conver=6) int=(grid=ultrafine)

title

0 1
  O    2.117646266  -0.063971009   0.000000000
  H    1.566706960   0.725029523   0.000000000
  H    3.022595991   0.254923981   0.000000000
  H   -2.074793159  -1.582754393  -0.887150416
  H   -2.074793159  -1.582754393   0.887150416
  H   -0.533014838  -1.550406795   0.000000000
  C   -1.546996909   1.369973752   0.000000000
  N   -1.582183538   0.208165748   0.000000000
  C   -1.566328563  -1.212003648   0.000000000

7.113_noHB__water--methylisocyanide_125.wfx

