%nprocs=4
%mem=2GB
#p hf aug-cc-pvdz output=wfx scf=(conver=6) int=(grid=ultrafine)

title

0 1
H        2.3048159560         2.5893520510        -0.5167430160
C        1.8654482070         1.6469476150        -0.8356802850
H        2.0272870610         1.5169329790        -1.9030932570
H        0.7970910480         1.6524803820        -0.6287424270
N        2.4659507180         0.5736818060        -0.1286498950
C        2.8692103040        -0.3420818080         0.4598683490

7.112_noHB__phenol--methylisocyanide_2.wfx

