%nprocs=4
%mem=2GB
#p hf aug-cc-pvdz output=wfx scf=(conver=6) int=(grid=ultrafine)

title

0 1
  O    2.117646266  -0.063971009   0.000000000
  H    1.566706960   0.725029523   0.000000000
  H    3.022595991   0.254923981   0.000000000
  H   -2.702471374  -1.582171433  -0.887150416
  H   -2.702471374  -1.582171433   0.887150416
  H   -1.160693053  -1.549823835   0.000000000
  C   -2.174675124   1.370556712   0.000000000
  N   -2.209861753   0.208748708   0.000000000
  C   -2.194006778  -1.211420688   0.000000000

7.113_noHB__water--methylisocyanide_150.wfx

