%nprocs=4
%mem=2GB
#p hf aug-cc-pvdz output=wfx scf=(conver=6) int=(grid=ultrafine)

title

0 1
  O    2.117646266  -0.063971009   0.000000000
  H    1.566706960   0.725029523   0.000000000
  H    3.022595991   0.254923981   0.000000000
  H   -1.447114943  -1.583337353  -0.887150416
  H   -1.447114943  -1.583337353   0.887150416
  H    0.094663378  -1.550989755   0.000000000
  C   -0.919318693   1.369390792   0.000000000
  N   -0.954505322   0.207582788   0.000000000
  C   -0.938650347  -1.212586608   0.000000000

7.113_noHB__water--methylisocyanide_100.wfx

