%nprocs=4
%mem=2GB
#p hf aug-cc-pvdz output=wfx scf=(conver=6) int=(grid=ultrafine)

title

0 1
  O    2.117646266  -0.063971009   0.000000000
  H    1.566706960   0.725029523   0.000000000
  H    3.022595991   0.254923981   0.000000000
  H   -1.698186229  -1.583104169  -0.887150416
  H   -1.698186229  -1.583104169   0.887150416
  H   -0.156407908  -1.550756571   0.000000000
  C   -1.170389979   1.369623976   0.000000000
  N   -1.205576608   0.207815972   0.000000000
  C   -1.189721633  -1.212353424   0.000000000

7.113_noHB__water--methylisocyanide_110.wfx

