%nprocs=4
%mem=2GB
#p hf aug-cc-pvdz output=wfx scf=(conver=6) int=(grid=ultrafine)

title

0 1
  O    2.117646266  -0.063971009   0.000000000
  H    1.566706960   0.725029523   0.000000000
  H    3.022595991   0.254923981   0.000000000
  H   -1.321579300  -1.583453945  -0.887150416
  H   -1.321579300  -1.583453945   0.887150416
  H    0.220199021  -1.551106347   0.000000000
  C   -0.793783050   1.369274200   0.000000000
  N   -0.828969679   0.207466196   0.000000000
  C   -0.813114704  -1.212703200   0.000000000

7.113_noHB__water--methylisocyanide_095.wfx

