%nprocs=4
%mem=4GB
#p pbepbe aug-cc-pvtz output=wfx scf=(conver=6) int=(grid=ultrafine)

title

0 1
o 1.390783779496696 -2.270080436921221 0.000000000000000
n 1.324216227649450 0.012864678898840 0.000000000000000
c -1.397313771462456 0.021212830666128 0.000000000000000
c -0.694839635279479 1.248652593850525 0.000000000000000
c 0.670491690426835 1.198940859749452 0.000000000000000
c 0.711051188137019 -1.232725380118025 0.000000000000000
c -0.727169370360074 -1.172593417968975 0.000000000000000
h -2.479389070337011 0.023154288764491 0.000000000000000
h -1.203634175762850 2.198665933410491 0.000000000000000
h 1.295511275523510 2.080321882459488 0.000000000000000
h -1.251696637449883 -2.116277929788417 0.000000000000000
h 2.361988499418238 0.007864096997218 0.000000000000000

06a.wfx

