%nprocs=4
%mem=4GB
#p pbepbe aug-cc-pvtz output=wfx scf=(conver=6) int=(grid=ultrafine)

title

0 1
o -1.746645610312958 3.025278939879195 0.000000000000000
c -1.141241331481755 1.976687969823957 0.000000000000000
c -1.681421282937548 0.612948445278650 0.000000000000000
c -1.681421282937548 -0.612948445278650 0.000000000000000
c -1.141241331481755 -1.976687969823957 0.000000000000000
o -1.746645610312958 -3.025278939879195 0.000000000000000
c 0.309881716647286 -1.762627768127065 0.000000000000000
c 1.371539566290262 -1.149679322848415 0.000000000000000
c 2.282482662963511 0.000000000000000 0.000000000000000
o 3.493291220625915 0.000000000000000 0.000000000000000
c 1.371539566290262 1.149679322848415 0.000000000000000
c 0.309881716647286 1.762627768127065 0.000000000000000

carbooxo1.wfx

