%nprocs=4
%mem=4GB
#p pbepbe aug-cc-pvtz output=wfx scf=(conver=6) int=(grid=ultrafine)

title

0 1
o -0.017733816003812 2.661046289773624 0.000000000000000
c 0.040449745739493 1.439466391350388 0.000000000000000
c 1.239759475818317 0.624560193231218 0.000000000000000
c 1.180164007930709 -0.735011017127815 0.000000000000000
c -0.065598232577144 -1.425038676066794 0.000000000000000
c -1.205311956623958 -0.685751733069270 0.000000000000000
n -1.145009161962386 0.674988896076757 0.000000000000000
h 2.180170266882729 1.158322836610077 0.000000000000000
h 2.099032679844794 -1.310737460400984 0.000000000000000
h -0.113648693181123 -2.503838197983338 0.000000000000000
h -2.196527528657470 -1.119553100109083 0.000000000000000
h -1.995746787210169 1.221545577715193 0.000000000000000

ISO_P36.wfx

