%nprocs=4
%mem=4GB
#p pbepbe aug-cc-pvtz output=wfx scf=(conver=6) int=(grid=ultrafine)

title

0 1
c -0.056450102824490 1.165375544588803 0.000000000000000
n -1.251212189076619 0.593280633697293 0.000000000000000
c -1.303152417922944 -0.744690975516599 0.000000000000000
c -0.175336218887878 -1.549791071975565 0.000000000000000
c 1.074175247921218 -0.926042827431968 0.000000000000000
c 1.148724379124366 0.454927325262149 0.000000000000000
o -0.012352234814701 2.518668846275555 0.000000000000000
h -2.297682387748413 -1.178206440962441 0.000000000000000
h -0.268848590067969 -2.627494459902509 0.000000000000000
h 1.982617411947711 -1.516530694380335 0.000000000000000
h 2.090931252996787 0.985481185271526 0.000000000000000
h -0.931414150647068 2.825022935074095 0.000000000000000

ISO_E36.wfx

