%nprocs=4
%mem=4GB
#p pbepbe aug-cc-pvtz output=wfx scf=(conver=6) int=(grid=ultrafine)

title

0 1
c 0.150794219299180 -0.121562050764798 0.000000000000000
c 0.650377090990875 -0.885005686449036 1.186565422406296
c 0.144590906428897 -2.088507605704252 1.507737467753842
c -0.746665312247072 -2.848773762817184 0.679676643044527
c -0.746665312247072 -2.848773762817184 -0.679676643044527
c 0.144590906428897 -2.088507605704252 -1.507737467753842
c 0.650377090990875 -0.885005686449036 -1.186565422406296
c 0.583713886332217 1.346721237149112 0.000000000000000
c 0.083025901874817 2.137698893989217 1.170155467724733
c -0.580552815915723 3.216658505362389 0.730288413832658
c -0.580552815915723 3.216658505362389 -0.730288413832658
c 0.083025901874817 2.137698893989217 -1.170155467724733
h -0.946190551187410 -0.165180054468882 0.000000000000000
h 1.428252965983463 -0.442276723105076 1.803222958884842
h 0.449919147425989 -2.547377674087576 2.444339949316046
h -1.365170875965029 -3.591025542459606 1.176392548317962
h -1.365170875965029 -3.591025542459606 -1.176392548317962
h 0.449919147425989 -2.547377674087576 -2.444339949316046
h 1.428252965983463 -0.442276723105076 -1.803222958884842
h 1.686437520232941 1.373690297887599 0.000000000000000
h 0.246503002576733 1.857872026841447 2.201859505423275
h -1.047657548491396 3.973902853528185 1.346850261464020
h -1.047657548491396 3.973902853528185 -1.346850261464020
h 0.246503002576733 1.857872026841447 -2.201859505423275

ISO_P35.wfx

