%nprocs=4
%mem=4GB
#p pbepbe aug-cc-pvtz output=wfx scf=(conver=6) int=(grid=ultrafine)

title

0 1
c -0.789688082603442 0.789688082603442 -0.093402516889399
c -0.789688082603442 -0.789688082603442 0.093402516889399
c 0.789688082603442 -0.789688082603442 -0.093402516889399
c 0.789688082603442 0.789688082603442 0.093402516889399
c -1.607582659501496 1.607582659501496 0.919427704849395
c -1.246984097069261 1.246984097069261 -1.491065554647676
c -1.246984097069261 -1.246984097069261 1.491065554647676
c -1.607582659501496 -1.607582659501496 -0.919427704849395
c 1.246984097069261 -1.246984097069261 -1.491065554647676
c 1.607582659501496 -1.607582659501496 0.919427704849395
c 1.246984097069261 1.246984097069261 1.491065554647676
c 1.607582659501496 1.607582659501496 -0.919427704849395
h -1.367270884057625 1.367270884057625 1.955379249991136
h -1.426927282085588 2.677880239518661 0.769354254791226
h -2.677880239518661 1.426927282085588 0.769354254791226
h -0.731736384206753 0.731736384206753 -2.301673855153085
h -2.320461381049500 1.067608380759472 -1.608586085804558
h -1.067608380759472 2.320461381049500 -1.608586085804558
h -0.731736384206753 -0.731736384206753 2.301673855153085
h -2.320461381049500 -1.067608380759472 1.608586085804558
h -1.067608380759472 -2.320461381049500 1.608586085804558
h -1.367270884057625 -1.367270884057625 -1.955379249991136
h -1.426927282085588 -2.677880239518661 -0.769354254791226
h -2.677880239518661 -1.426927282085588 -0.769354254791226
h 0.731736384206753 -0.731736384206753 -2.301673855153085
h 2.320461381049500 -1.067608380759472 -1.608586085804558
h 1.067608380759472 -2.320461381049500 -1.608586085804558
h 1.367270884057625 -1.367270884057625 1.955379249991136
h 1.426927282085588 -2.677880239518661 0.769354254791226
h 2.677880239518661 -1.426927282085588 0.769354254791226
h 0.731736384206753 0.731736384206753 2.301673855153085
h 2.320461381049500 1.067608380759472 1.608586085804558
h 1.067608380759472 2.320461381049500 1.608586085804558
h 1.367270884057625 1.367270884057625 -1.955379249991136
h 1.426927282085588 2.677880239518661 -0.769354254791226
h 2.677880239518661 1.426927282085588 -0.769354254791226

omcb.wfx

