%nprocs=4
%mem=2GB
#P pbepbe aug-cc-pvtz SCF=(Conver=6) Int=(grid=ultrafine) output=wfx
 
title
 
0 1
Si	0.000000 0.000000 0.374209
H	0.000000 0.000000 1.867126
C	0.000000 1.788094 -0.221233
H	0.000000 1.841597 -1.315449
H	-0.883582 2.326399 0.137082
H	0.883582 2.326399 0.137082
C	1.548535 -0.894047 -0.221233
H	1.572930 -1.928404 0.137082
H	1.594870 -0.920798 -1.315449
H	2.456512 -0.397996 0.137082
C	-1.548535 -0.894047 -0.221233
H	-1.572930 -1.928404 0.137082
H	-2.456512 -0.397996 0.137082
H	-1.594870 -0.920798 -1.315449

trimethylsilane.wfx


