%nprocs=4
%mem=2GB
#P pbepbe aug-cc-pvtz SCF=(Conver=6) Int=(grid=ultrafine) output=wfx
 
title
 
0 1
Si	0.000000 0.042249 0.000000
O	0.000555 1.703610 0.000000
H	-0.850520 2.145457 0.000000
C	1.809171 -0.438071 0.000000
H	2.321055 -0.044802 0.884120
H	1.932323 -1.526523 0.000000
H	2.321055 -0.044802 -0.884120
C	-0.860888 -0.625005 1.533352
H	-0.835146 -1.720548 1.553567
H	-0.376905 -0.264563 2.447082
H	-1.914305 -0.325494 1.575505
C	-0.860888 -0.625005 -1.533352
H	-0.376905 -0.264563 -2.447082
H	-0.835146 -1.720548 -1.553567
H	-1.914305 -0.325494 -1.575505

trimethylhydroxysilane.wfx


