%nprocs=4
%mem=2GB
#P pbepbe aug-cc-pvtz SCF=(Conver=6) Int=(grid=ultrafine) output=wfx
 
title
 
0 1
C	-0.003698 0.911389 0.000000
C	-0.007012 0.193797 1.199762
C	-0.007012 0.193797 -1.199762
C	-0.007012 -1.198550 1.202693
C	-0.007012 -1.198550 -1.202693
C	-0.006225 -1.900943 0.000000
C	0.026890 2.420544 0.000000
H	1.057370 2.797253 0.000000
H	-0.467079 2.831153 -0.885552
H	-0.467079 2.831153 0.885552
H	-0.011950 -1.735044 2.146168
H	-0.011950 -1.735044 -2.146168
H	-0.009430 -2.985834 0.000000
H	-0.011694 0.733730 2.142447
H	-0.011694 0.733730 -2.142447

toluene.wfx


