%nprocs=4
%mem=2GB
#P pbepbe aug-cc-pvtz SCF=(Conver=6) Int=(grid=ultrafine) output=wfx
 
title
 
0 1
O	-0.016164 -0.708297 0.000000
C	-1.316979 -1.239991 0.000000
H	-1.227608 -2.329277 0.000000
H	-1.887729 -0.931510 0.891224
H	-1.887729 -0.931510 -0.891224
C	0.000000 0.703467 0.000000
H	-0.533273 1.090611 -0.885950
H	-0.533273 1.090611 0.885950
C	1.445113 1.171727 0.000000
H	1.968486 0.800742 -0.885882
H	1.493145 2.264752 0.000000
H	1.968486 0.800742 0.885882

ethylmethylether.wfx


