%nprocs=4
%mem=2GB
#P pbepbe aug-cc-pvtz SCF=(Conver=6) Int=(grid=ultrafine) output=wfx
 
title
 
0 2
C	-0.000197 0.993118 0.000000
C	0.000101 0.251358 1.215414
C	0.000101 -1.131230 1.209240
C	0.000000 -1.835626 0.000000
C	0.000101 -1.131230 -1.209240
C	0.000101 0.251358 -1.215414
H	0.000227 0.793002 2.156346
H	0.000153 -1.673273 2.149543
H	0.000000 -2.920113 0.000000
H	0.000153 -1.673273 -2.149543
H	0.000227 0.793002 -2.156346
C	-0.000306 2.396581 0.000000
H	-0.000221 2.957342 -0.927140
H	-0.000221 2.957342 0.927140

toluene_rad.wfx


