%nprocs=4
%mem=2GB
#P pbepbe aug-cc-pvtz SCF=(Conver=6) Int=(grid=ultrafine) output=wfx
 
title
 
0 1
Si	0.000000 0.000000 0.545051
H	1.198571 0.000000 1.429433
H	-1.198571 0.000000 1.429433
C	0.000000 1.559323 -0.509249
H	-0.884656 1.600784 -1.152847
H	0.000000 2.457275 0.116398
H	0.884656 1.600784 -1.152847
C	0.000000 -1.559323 -0.509249
H	0.000000 -2.457275 0.116398
H	-0.884656 -1.600784 -1.152847
H	0.884656 -1.600784 -1.152847

dimethylsilane.wfx


