%nprocs=4
%mem=2GB
#P pbepbe aug-cc-pvtz SCF=(Conver=6) Int=(grid=ultrafine) output=wfx
 
title
 
0 1
C	0.244824 -0.639294 0.364131
H	0.047366 -0.528957 1.436406
H	1.332573 -0.711357 0.252156
C	-0.244770 0.639282 -0.364172
H	-1.332519 0.711334 -0.252205
H	-0.047302 0.528954 -1.436447
C	-0.413972 -1.894533 -0.157432
C	-1.613380 -2.356974 0.393018
C	-2.240493 -3.494800 -0.107548
C	-1.675756 -4.192968 -1.172401
C	-0.480661 -3.744486 -1.729913
C	0.141969 -2.606008 -1.225173
H	-2.056755 -1.821425 1.228037
H	-3.168330 -3.839199 0.337921
H	-2.160885 -5.081797 -1.561831
H	-0.029176 -4.284548 -2.556007
H	1.077378 -2.266162 -1.661247
C	0.413998 1.894527 0.157413
C	-0.142192 2.606210 1.224884
C	0.480402 3.744697 1.729650
C	1.675710 4.192979 1.172436
C	2.240698 3.494601 0.107852
C	1.613621 2.356768 -0.392741
H	-1.077763 2.266516 1.660727
H	0.028723 4.284921 2.555532
H	2.160810 5.081815 1.561884
H	3.168704 3.838841 -0.337386
H	2.057193 1.821058 -1.227553

dibenzyl.wfx


