%nprocs=4
%mem=4GB
#p pbepbe aug-cc-pvtz output=wfx scf=(conver=6) int=(grid=ultrafine)

title

0 1
c -0.025814598517553 -0.050552884989352 0.405680472243537
c 1.109107252155603 0.267206630291870 -0.573965000073181
n -0.199739393375586 -1.486911012637818 0.509075840810324
h -0.749755415227837 -1.808012424869132 -0.282553868895622
h -0.737302335604037 -1.717418255152816 1.335915604948017
h 0.242751328136070 0.357259975609236 1.380068341446713
c -1.269586687550855 0.662229420636684 -0.094729599641322
o -2.179702005358167 0.136596630406275 -0.695935472931085
o -1.222743280742046 1.987802860304826 0.171486875458059
h -2.023265808146574 2.373226979347835 -0.219592634497960
h 0.878456242776576 -0.170202481862277 -1.546856943517166
h 1.212599687697762 1.344645532452204 -0.695331200184824
s 2.708351654509901 -0.333500959154740 0.018452927857198
h 2.256643359246751 -1.562370010382773 0.288284656977312

5.wfx

