%nprocs=4
%mem=4GB
#p pbepbe aug-cc-pvtz output=wfx scf=(conver=6) int=(grid=ultrafine)

title

1 1
s 0.000000000000000 0.000000000000000 0.538829956109243
h -0.578240593677717 1.001542087248599 -0.179609985369748
h -0.578240593677717 -1.001542087248599 -0.179609985369748
h 1.156481187355439 0.000000000000000 -0.179609985369748

h2sp.wfx

