%nprocs=4
%mem=4GB
#p pbepbe aug-cc-pvtz output=wfx scf=(conver=6) int=(grid=ultrafine)

title

1 1
n 0.000000000000000 0.000000000000000 0.000000000000000
h 0.591866975182072 -0.591866975182072 0.591866975182072
h -0.591866975182072 0.591866975182072 0.591866975182072
h -0.591866975182072 -0.591866975182072 -0.591866975182072
h 0.591866975182072 0.591866975182072 -0.591866975182072

nh3p.wfx

