%nprocs=4
%mem=4GB
#p pbepbe aug-cc-pvtz output=wfx scf=(conver=6) int=(grid=ultrafine)

title

0 1
c 0.610020135332451 -0.395915499194065 0.000000000000000
c 1.842759214480018 0.118267316656934 0.000000000000000
c -0.610020135332451 0.395915499194065 0.000000000000000
c -1.842759214480018 -0.118267316656934 0.000000000000000
h 0.483392007200262 -1.476093665577202 0.000000000000000
h 2.010352388870519 1.190089577478148 0.000000000000000
h 2.721807579559105 -0.513631111600105 0.000000000000000
h -0.483392007200262 1.476093665577202 0.000000000000000
h -2.010352388870519 -1.190089577478148 0.000000000000000
h -2.721807579559105 0.513631111600105 0.000000000000000

p4.wfx

