%nprocs=4
%mem=4GB
#p pbepbe aug-cc-pvtz output=wfx scf=(conver=6) int=(grid=ultrafine)

title

1 1
c -2.915372013271286 -0.133602605561426 0.000000000000000
c -1.547927956400149 0.393651573442953 0.000000000000000
c -0.402216672222380 -0.365056201888460 0.000000000000000
c 0.852193230161470 0.242766512984081 0.000000000000000
c 2.081681986057005 -0.456499669380105 0.000000000000000
c 3.259654189523982 0.211471749853402 0.000000000000000
h -3.459845541820354 0.263892275752731 -0.867558498669077
h -3.459845541820354 0.263892275752731 0.867558498669077
h -2.963770067226777 -1.220556115439215 0.000000000000000
h -1.440555745251715 1.477100853304375 0.000000000000000
h -0.471491344341619 -1.447994967006665 0.000000000000000
h 0.893879232510810 1.330044814231904 0.000000000000000
h 2.067442378417517 -1.541031318654139 0.000000000000000
h 3.298963722061020 1.295657268952028 0.000000000000000
h 4.207210143622808 -0.313736446344216 0.000000000000000

p6p.wfx

