%nprocs=4
%mem=4GB
#p pbepbe aug-cc-pvtz output=wfx scf=(conver=6) int=(grid=ultrafine)

title

0 1
p 0.000000000000000 0.000000000000000 0.575649674714399
h -0.598204841769672 1.036121179278769 -0.191883224904798
h -0.598204841769672 -1.036121179278769 -0.191883224904798
h 1.196409683539338 0.000000000000000 -0.191883224904798

ph3.wfx

