%nprocs=4
%mem=4GB
#p pbepbe aug-cc-pvtz output=wfx scf=(conver=6) int=(grid=ultrafine)

title

0 1
c 0.000000000000000 0.000000000000000 -0.598290303675643
h 0.000000000000000 0.000000000000000 -1.662971295471121
c 0.000000000000000 0.000000000000000 0.598290303675643
h 0.000000000000000 0.000000000000000 1.662971295471121

ethine.wfx

