%nprocs=4
%mem=4GB
#p pbepbe aug-cc-pvtz output=wfx scf=(conver=6) int=(grid=ultrafine)

title

0 1
c -0.661894695013958 -0.059709781779976 -1.393910381521957
c -1.486209215995241 -0.113548388472720 -0.144719249006808
c -0.691627660745872 0.317536458777200 1.081725980051646
c 0.691627660745872 -0.317536458777200 1.081725980051646
c 1.486209215995241 0.113548388472720 -0.144719249006808
c 0.661894695013958 0.059709781779976 -1.393910381521957
h -1.190276055377050 -0.118797766698539 -2.341761278571616
h -2.373254544503888 0.518104939498531 -0.263582009303071
h -1.871283645981946 -1.133268760539212 -0.007315522530802
h -1.235540096199364 0.060874969194529 1.994969104506149
h -0.583769029650397 1.408342125407059 1.074593356376459
h 1.235540096199364 -0.060874969194529 1.994969104506149
h 0.583769029650397 -1.408342125407059 1.074593356376459
h 2.373254544503888 -0.518104939498531 -0.263582009303071
h 1.871283645981946 1.133268760539212 -0.007315522530802
h 1.190276055377050 0.118797766698539 -2.341761278571616

P1.wfx

