%nprocs=4
%mem=4GB
#p pbepbe aug-cc-pvtz output=wfx scf=(conver=6) int=(grid=ultrafine)

title

0 1
c 0.000000000000000 1.272765715762798 0.241143042488441
c -1.227943714332432 0.663666916101141 0.869592437183549
c -1.227943714332432 -0.663666916101141 0.869592437183549
c 0.000000000000000 -1.272765715762798 0.241143042488441
c 0.000000000000000 0.767961752541939 -1.238609689600315
c 0.000000000000000 -0.767961752541939 -1.238609689600315
c 1.227943714332432 0.663666916101141 0.869592437183549
c 1.227943714332432 -0.663666916101141 0.869592437183549
h 0.000000000000000 2.361633844882976 0.281075974645911
h -2.040009377216259 1.278634574818451 1.238746094231348
h -2.040009377216259 -1.278634574818451 1.238746094231348
h 0.000000000000000 -2.361633844882976 0.281075974645911
h 0.880905818848385 1.161447294811004 -1.750143195181918
h -0.880905818848385 1.161447294811004 -1.750143195181918
h 0.880905818848385 -1.161447294811004 -1.750143195181918
h -0.880905818848385 -1.161447294811004 -1.750143195181918
h 2.040009377216259 1.278634574818451 1.238746094231348
h 2.040009377216259 -1.278634574818451 1.238746094231348

P6.wfx

