%nprocs=4
%mem=4GB
#p pbepbe aug-cc-pvtz output=wfx scf=(conver=6) int=(grid=ultrafine)

title

0 1
c 0.638662006028593 0.313454494589717 -1.121987317286381
c -0.514213428227700 -0.679346925569737 -0.765229222316983
c -0.514213428227700 -0.679346925569737 0.765229222316983
c 0.638662006028593 0.313454494589717 1.121987317286381
c 1.902517796332822 -0.380583423762247 -0.666125399172180
c 1.902517796332822 -0.380583423762247 0.666125399172180
c 0.477792728461489 1.347597265829956 0.000000000000000
c -1.874834589099684 -0.148598933898578 -1.139491227337871
c -1.874834589099684 -0.148598933898578 1.139491227337871
o -2.596129239502296 0.140546002822141 0.000000000000000
o -2.330453110206771 0.034819869492953 2.219752324446139
o -2.330453110206771 0.034819869492953 -2.219752324446139
h 0.607324223620779 0.665239283694647 -2.150921692466049
h -0.374089233803621 -1.650235344344786 -1.239728005740381
h -0.374089233803621 -1.650235344344786 1.239728005740381
h 0.607324223620779 0.665239283694647 2.150921692466049
h 2.607616469317033 -0.872186082227477 -1.323681945117728
h 2.607616469317033 -0.872186082227477 1.323681945117728
h -0.487270502514722 1.862268292261952 0.000000000000000
h 1.280546745632601 2.084462563136974 0.000000000000000

P9X.wfx

