%nprocs=4
%mem=4GB
#p pbepbe aug-cc-pvtz output=wfx scf=(conver=6) int=(grid=ultrafine)

title

0 1
bi 0.000000000000000 0.000000000000000 -0.999930433837372
h -0.718181068152402 -1.243926099074051 -2.021179693761924
h -0.718181068152402 1.243926099074051 -2.021179693761924
h 1.436362136304810 0.000000000000000 -2.021179693761924
cl 0.000000000000000 0.000000000000000 2.895587539097085
h 0.000000000000000 0.000000000000000 4.168359343821119

bih3_hcl.wfx

