%nprocs=4
%mem=4GB
#p pbepbe aug-cc-pvtz output=wfx scf=(conver=6) int=(grid=ultrafine)

title

0 1
bi 2.228634845428827 0.348918616680553 0.000000000000000
bi -2.228634845428827 -0.348918616680553 0.000000000000000
h 3.234788643563130 -0.394884275755977 1.243069812692638
h 1.188054809474713 -1.076403722542368 0.000000000000000
h 3.234788643563130 -0.394884275755977 -1.243069812692638
h -3.234788643563130 0.394884275755977 -1.243069812692638
h -1.188054809474713 1.076403722542368 0.000000000000000
h -3.234788643563130 0.394884275755977 1.243069812692638

bih3_2.wfx

