%nprocs=4
%mem=4GB
#p pbepbe aug-cc-pvtz output=wfx scf=(conver=6) int=(grid=ultrafine)

title

0 1
n 0.000000000000000 0.000000000000000 -0.283245016423626
h -0.468116242819214 0.810801116411132 0.094417097152351
h -0.468116242819214 -0.810801116411132 0.094417097152351
h 0.936232485638433 0.000000000000000 0.094417097152351

nh3.wfx

