%nprocs=4
%mem=4GB
#p pbepbe aug-cc-pvtz output=wfx scf=(conver=6) int=(grid=ultrafine)

title

0 1
pb 0.000000000000000 0.000000000000000 0.000000000000000
h -0.994447672896045 0.994447672896050 0.994447672896050
h 0.994447672896050 -0.994447672896050 0.994447672896045
h -0.994447672896050 -0.994447672896050 -0.994447672896045
h 0.994447672896050 0.994447672896045 -0.994447672896045

pbh4.wfx

