%nprocs=4
%mem=4GB
#p pbepbe aug-cc-pvtz output=wfx scf=(conver=6) int=(grid=ultrafine)

title

0 1
pb 0.000000000000000 0.000000000000000 -1.384467180619380
h 0.000000000000000 -1.402517430587894 -0.383482933549670
h 0.000000000000000 1.402517430587894 -0.383482933549670
h 1.406664842322378 0.000000000000000 -2.378014441446104
h -1.406664842322378 0.000000000000000 -2.378014441446104
h 0.000000000000000 0.000000000000000 4.161113294573156
br 0.000000000000000 0.000000000000000 2.746348636037756

pbh4_hbr.wfx

