%nprocs=4
%mem=4GB
#p pbepbe aug-cc-pvtz output=wfx scf=(conver=6) int=(grid=ultrafine)

title

0 1
te -1.769242599774930 -1.243451376286903 0.000000000000000
h -0.500377547921930 -0.212269950265018 0.000000000000000
h -2.801431476177147 0.022246938406770 0.000000000000000
h 2.890929343004909 0.005446170362583 0.000000000000000
i 2.180122280869093 1.428028217782558 0.000000000000000

teh2_hi.wfx

