%nprocs=4
%mem=4GB
#p pbepbe aug-cc-pvtz output=wfx scf=(conver=6) int=(grid=ultrafine)

title

0 1
te -1.106224621874732 -0.592211933681595 0.000000000000000
h -1.205250210881673 1.036390924226722 0.000000000000000
h -2.737379317269217 -0.703625811030304 0.000000000000000
h 2.682555349563544 -0.486437749673835 0.000000000000000
cl 2.366298800462078 0.745884570159017 0.000000000000000

teh2_hcl.wfx

