%nprocs=4
%mem=2GB
#P pbepbe aug-cc-pvtz SCF=(Conver=6) Int=(grid=ultrafine) output=wfx
 
title
 
0 2
C	0.000000 0.000000 0.577771
C	0.000000 1.217815 -0.148596
C	0.000000 1.212700 -1.533228
C	0.000000 0.000000 -2.229380
C	0.000000 -1.212700 -1.533228
C	0.000000 -1.217815 -0.148596
H	0.000000 2.149057 0.406316
H	0.000000 2.150701 -2.078853
H	0.000000 0.000000 -3.314726
H	0.000000 -2.150701 -2.078853
H	0.000000 -2.149057 0.406316
S	0.000000 0.000000 2.296959

ArS_3.wfx


