%nprocs=4
%mem=2GB
#P pbepbe aug-cc-pvtz SCF=(Conver=6) Int=(grid=ultrafine) output=wfx
 
title
 
0 1
C	-0.648969 -0.374697 0.264871
Cl	-0.661108 -2.060209 -0.323649
Cl	-0.661108 -0.381565 2.050213
Cl	-2.115083 0.457605 -0.323542
C	0.648969 0.374697 -0.264871
Cl	0.661108 2.060209 0.323649
Cl	0.661108 0.381565 -2.050213
Cl	2.115083 -0.457605 0.323542

C2Cl6.wfx


