%nprocs=4
%mem=2GB
#P pbepbe aug-cc-pvtz SCF=(Conver=6) Int=(grid=ultrafine) output=wfx
 
title
 
0 1
C	-1.320939 -0.166207 0.000000
C	0.000000 0.647282 0.000000
F	-1.392175 -0.929970 1.083577
F	-2.346553 0.683263 0.000000
F	-1.392175 -0.929970 -1.083577
F	0.020067 1.421810 1.084916
F	0.020067 1.421810 -1.084916
Br	1.535501 -0.511112 0.000000

C2F5Br.wfx


