%nprocs=4
%mem=2GB
#P pbepbe aug-cc-pvtz SCF=(Conver=6) Int=(grid=ultrafine) output=wfx
 
title
 
0 2
C	-0.011306 -0.693173 0.000000
C	-0.011306 0.794548 0.000000
H	1.011529 -1.108146 0.000000
H	-0.508737 -1.101453 0.886743
H	-0.508737 -1.101453 -0.886743
H	0.070808 1.351400 0.926269
H	0.070808 1.351400 -0.926269

c2h5.wfx


