%nprocs=4
%mem=2GB
#P pbepbe aug-cc-pvtz SCF=(Conver=6) Int=(grid=ultrafine) output=wfx
 
title
 
0 2
C	0.991794 -0.608566 0.000000
C	0.000000 0.588065 0.000000
O	-1.254290 0.049476 0.000000
H	0.194790 1.194438 0.901295
H	0.194790 1.194438 -0.901295
H	2.011619 -0.214905 0.000000
H	0.841177 -1.223384 0.889458
H	0.841177 -1.223384 -0.889458

ch3ch2o.wfx


