%nprocs=4
%mem=2GB
#P pbepbe aug-cc-pvtz SCF=(Conver=6) Int=(grid=ultrafine) output=wfx
 
title
 
0 1
C	0.000000 0.000000 -1.176741
H	0.000000 1.025366 -1.556545
H	0.887993 -0.512683 -1.556545
H	-0.887993 -0.512683 -1.556545
C	0.000000 0.000000 0.280340
N	0.000000 0.000000 1.435435

cyanomethane.wfx


