%nprocs=4
%mem=2GB
#P pbepbe aug-cc-pvtz SCF=(Conver=6) Int=(grid=ultrafine) output=wfx
 
title
 
0 1
C	0.000000 0.870139 0.000000
C	0.753562 -0.435069 0.000000
C	-0.753562 -0.435069 0.000000
H	0.000000 1.460917 0.909393
H	0.000000 1.460917 -0.909393
H	1.265191 -0.730458 -0.909393
H	1.265191 -0.730458 0.909393
H	-1.265191 -0.730458 0.909393
H	-1.265191 -0.730458 -0.909393

cyclopropane.wfx


