%nprocs=4
%mem=2GB
#P pbepbe aug-cc-pvtz SCF=(Conver=6) Int=(grid=ultrafine) output=wfx
 
title
 
0 2
S	0.397471 -1.138137 0.000000
C	-0.696535 0.304738 0.000000
H	-1.353916 0.186541 -0.871445
H	-1.353916 0.186541 0.871445
C	0.000000 1.663246 0.000000
H	0.633504 1.778431 -0.883633
H	-0.739510 2.472346 0.000000
H	0.633504 1.778431 0.883633

EtS.wfx


