%nprocs=4
%mem=2GB
#P pbepbe aug-cc-pvtz SCF=(Conver=6) Int=(grid=ultrafine) output=wfx
 
title
 
0 1
Si	0.000000 0.000000 1.187088
Si	0.000000 0.000000 -1.187088
C	-1.538246 0.888107 -1.850721
H	-1.577756 1.930692 -1.518233
H	-1.544205 0.891547 -2.946888
H	-2.460906 0.401030 -1.518233
C	1.538246 0.888107 -1.850721
H	1.544205 0.891547 -2.946888
H	1.577756 1.930692 -1.518233
H	2.460906 0.401030 -1.518233
C	0.000000 -1.776213 -1.850721
H	0.000000 -1.783094 -2.946888
H	0.883151 -2.331723 -1.518233
H	-0.883151 -2.331723 -1.518233
C	0.000000 1.776213 1.850721
H	0.883151 2.331723 1.518233
H	-0.883151 2.331723 1.518233
H	0.000000 1.783094 2.946888
C	-1.538246 -0.888107 1.850721
H	-1.544205 -0.891547 2.946888
H	-1.577756 -1.930692 1.518233
H	-2.460906 -0.401030 1.518233
C	1.538246 -0.888107 1.850721
H	2.460906 -0.401030 1.518233
H	1.544205 -0.891547 2.946888
H	1.577756 -1.930692 1.518233

hexamethyldisilane.wfx


