%nprocs=4
%mem=2GB
#P pbepbe aug-cc-pvtz SCF=(Conver=6) Int=(grid=ultrafine) output=wfx
 
title
 
0 1
H	3.450720 0.480650 0.000000
C	2.412146 0.790669 0.000000
C	1.411068 -0.095434 0.000000
H	2.223124 1.860230 0.000000
H	1.642920 -1.159870 0.000000
C	0.000000 0.248529 0.000000
C	-0.997409 -0.644746 0.000000
H	-0.239360 1.311981 0.000000
H	-0.744648 -1.705088 0.000000
C	-2.456770 -0.312962 0.000000
H	-2.961284 -0.736076 0.878238
H	-2.961284 -0.736076 -0.878238
H	-2.624398 0.767909 0.000000

pentadiene.wfx


