%nprocs=4
%mem=2GB
#P pbepbe aug-cc-pvtz SCF=(Conver=6) Int=(grid=ultrafine) output=wfx
 
title
 
0 1
C	0.020097 -1.757708 0.000000
N	-1.175900 -1.169145 0.000000
C	-1.178521 0.162640 0.000000
C	0.000000 0.907610 0.000000
C	1.193414 0.183846 0.000000
N	1.206230 -1.146996 0.000000
H	-2.149861 0.659152 0.000000
H	0.029353 -2.843931 0.000000
H	2.147457 0.705156 0.000000
O	0.049602 2.261959 0.000000
H	-0.846016 2.618615 0.000000

pyrimidinol.wfx


