%nprocs=4
%mem=2GB
#P pbepbe aug-cc-pvtz SCF=(Conver=6) Int=(grid=ultrafine) output=wfx
 
title
 
0 1
C	0.000000 0.000000 -0.032330
C	0.000000 0.000000 1.476354
H	0.891029 0.514436 1.840009
H	-0.891029 0.514436 1.840009
H	0.000000 -1.028872 1.840009
F	0.000000 1.248968 -0.525340
F	-1.081638 -0.624484 -0.525340
F	1.081638 -0.624484 -0.525340

trifluoroethane.wfx


