%nprocs=4
%mem=4GB
#p pbepbe aug-cc-pvtz output=wfx scf=(conver=6) int=(grid=ultrafine)

title

0 1
b 0.000000000000000 0.000000000000000 0.000000000000000
h 0.596356675808905 -1.032920061933906 0.000000000000000
h 0.596356675808905 1.032920061933906 0.000000000000000
h -1.192713351617811 0.000000000000000 0.000000000000000

bh3.wfx

