%nprocs=4
%mem=4GB
#p pbepbe aug-cc-pvtz output=wfx scf=(conver=6) int=(grid=ultrafine)

title

0 1
b 0.000000000000000 0.000000000000000 -1.120381866414192
p 0.000000000000000 0.000000000000000 0.838308488386087
h -0.623595600452324 -1.080099263359849 1.501390302223033
h -0.623595600452324 1.080099263359849 1.501390302223033
h 1.247191200904652 0.000000000000000 1.501390302223033
h 0.586548476749205 1.015931762831757 -1.407365842880330
h -1.173096953498410 0.000000000000000 -1.407365842880330
h 0.586548476749205 -1.015931762831757 -1.407365842880330

BH3PH3.wfx

