%nprocs=4
%mem=4GB
#p pbepbe aug-cc-pvtz output=wfx scf=(conver=6) int=(grid=ultrafine)

title

0 1
n 0.701949705115092 1.215812553617327 0.000000000000000
b 1.444860433300680 0.000000000000000 0.000000000000000
n 0.701949705115092 -1.215812553617327 0.000000000000000
b -0.722430216650343 -1.251285840161381 0.000000000000000
n -1.403899410230184 0.000000000000000 0.000000000000000
b -0.722430216650343 1.251285840161381 0.000000000000000
h 1.204521954629282 2.086293224250089 0.000000000000000
h 2.641318124106718 0.000000000000000 0.000000000000000
h 1.204521954629282 -2.086293224250089 0.000000000000000
h -1.320659062053362 -2.287448594952677 0.000000000000000
h -2.409043909258565 0.000000000000000 0.000000000000000
h -1.320659062053362 2.287448594952677 0.000000000000000

bz.wfx

