%nprocs=4
%mem=4GB
#p pbepbe aug-cc-pvtz output=wfx scf=(conver=6) int=(grid=ultrafine)

title

0 1
n 0.000000000000000 0.000000000000000 -1.154377334179820
b 0.000000000000000 -1.105007315636035 0.000000000000000
n 0.000000000000000 0.000000000000000 1.154377334179820
b 0.000000000000000 1.105007315636035 0.000000000000000
h -0.816622280986705 0.000000000000000 -1.745919037812834
h 0.816622280986705 0.000000000000000 -1.745919037812834
h -1.016566039519199 -1.752955624522880 0.000000000000000
h 1.016566039519199 -1.752955624522880 0.000000000000000
h 0.816622280986705 0.000000000000000 1.745919037812834
h -0.816622280986705 0.000000000000000 1.745919037812834
h -1.016566039519199 1.752955624522880 0.000000000000000
h 1.016566039519199 1.752955624522880 0.000000000000000

cbut.wfx

