%nprocs=4
%mem=4GB
#p pbepbe aug-cc-pvtz output=wfx scf=(conver=6) int=(grid=ultrafine)

title

0 1
b -0.781889926142676 1.354273078005394 -0.206082681443776
n -1.476344744866245 0.000000000000000 0.228509182344472
b -0.781889926142676 -1.354273078005394 -0.206082681443776
n 0.738172372433125 -1.278552053797825 0.228509182344472
b 1.563779852285352 0.000000000000000 -0.206082681443776
n 0.738172372433125 1.278552053797825 0.228509182344472
h -1.317770337992339 2.282445178109945 0.366475169113449
h -0.832108717189740 1.441254575593593 -1.407980645529598
h -1.671039956947944 0.000000000000000 1.225410580695522
h -2.392847458414202 0.000000000000000 -0.206331605180069
h -0.832108717189740 -1.441254575593593 -1.407980645529598
h -1.317770337992339 -2.282445178109945 0.366475169113449
h 0.835519978473975 -1.447163053455774 1.225410580695522
h 1.196423729207104 -2.072266686367727 -0.206331605180069
h 1.664217434379479 0.000000000000000 -1.407980645529598
h 2.635540675984678 0.000000000000000 0.366475169113449
h 0.835519978473975 1.447163053455774 1.225410580695522
h 1.196423729207104 2.072266686367727 -0.206331605180069

ch.wfx

