%nprocs=4
%mem=4GB
#p pbepbe aug-cc-pvtz output=wfx scf=(conver=6) int=(grid=ultrafine)

title

0 1
n 0.000000000000000 0.000000000000000 0.284737340571879
h 0.469015890656038 0.812359352173423 -0.094912446857295
h 0.469015890656038 -0.812359352173423 -0.094912446857295
h -0.938031781312070 0.000000000000000 -0.094912446857295

nh3.wfx

