%nprocs=4
%mem=4GB
#p pbepbe aug-cc-pvtz output=wfx scf=(conver=6) int=(grid=ultrafine)

title

-1 1
C -1.006215463000000 -0.203566404000000 0.039323585000000
C 0.487100228000000 0.185923820000000 -0.030061282000000
O 1.301564189000000 -0.757785383000000 0.052857808000000
O 0.724973696000000 1.422331940000000 -0.159634962000000
H -1.223648142000000 -0.940991754000000 -0.733559633000000
H -1.208099576000000 -0.678638500000000 0.999935449000000
H -1.654410613000000 0.661570766000000 -0.082684221000000
H 2.483400551000000 2.026200565000000 -0.255088470000000
O 3.401886547000000 2.403914887000000 -0.313172418000000
C 4.279862065000000 1.312353625000000 -0.242798666000000
H 5.302761372000000 1.693179566000000 -0.302706002000000
H 4.182361029000000 0.747006130000000 0.688709291000000
H 4.136545241000000 0.597483557000000 -1.058651997000000

01acetatemethanol110.wfx

