%nprocs=4
%mem=4GB
#p pbepbe aug-cc-pvtz output=wfx scf=(conver=6) int=(grid=ultrafine)

title

-1 1
C -1.006215463000000 -0.203566404000000 0.039323585000000
C 0.487100228000000 0.185923820000000 -0.030061282000000
O 1.301564189000000 -0.757785383000000 0.052857808000000
O 0.724973696000000 1.422331940000000 -0.159634962000000
H -1.223648142000000 -0.940991754000000 -0.733559633000000
H -1.208099576000000 -0.678638500000000 0.999935449000000
H -1.654410613000000 0.661570766000000 -0.082684221000000
H 2.723173151000000 2.108541863000000 -0.268104158000000
O 3.641659147000000 2.486256185000000 -0.326188106000000
C 4.519634665000000 1.394694923000000 -0.255814354000000
H 5.542533972000000 1.775520864000000 -0.315721690000000
H 4.422133629000000 0.829347428000000 0.675693603000000
H 4.376317841000000 0.679824855000000 -1.071667685000000

01acetatemethanol125.wfx

