%nprocs=4
%mem=4GB
#p pbepbe aug-cc-pvtz output=wfx scf=(conver=6) int=(grid=ultrafine)

title

-1 1
C -1.006215463000000 -0.203566404000000 0.039323585000000
C 0.487100228000000 0.185923820000000 -0.030061282000000
O 1.301564189000000 -0.757785383000000 0.052857808000000
O 0.724973696000000 1.422331940000000 -0.159634962000000
H -1.223648142000000 -0.940991754000000 -0.733559633000000
H -1.208099576000000 -0.678638500000000 0.999935449000000
H -1.654410613000000 0.661570766000000 -0.082684221000000
H 3.922036152000000 2.520248355000000 -0.333182599000000
O 4.840522148000000 2.897962677000000 -0.391266547000000
C 5.718497666000000 1.806401415000000 -0.320892795000000
H 6.741396973000000 2.187227356000000 -0.380800131000000
H 5.620996630000000 1.241053920000000 0.610615162000000
H 5.575180842000000 1.091531347000000 -1.136746126000000

01acetatemethanol200.wfx

