%nprocs=4
%mem=4GB
#p pbepbe aug-cc-pvtz output=wfx scf=(conver=6) int=(grid=ultrafine)

title

-1 1
C -1.006215463000000 -0.203566404000000 0.039323585000000
C 0.487100228000000 0.185923820000000 -0.030061282000000
O 1.301564189000000 -0.757785383000000 0.052857808000000
O 0.724973696000000 1.422331940000000 -0.159634962000000
H -1.223648142000000 -0.940991754000000 -0.733559633000000
H -1.208099576000000 -0.678638500000000 0.999935449000000
H -1.654410613000000 0.661570766000000 -0.082684221000000
H 2.403476351000000 1.998753465000000 -0.250749907000000
O 3.321962347000000 2.376467787000000 -0.308833855000000
C 4.199937865000000 1.284906525000000 -0.238460103000000
H 5.222837172000000 1.665732466000000 -0.298367439000000
H 4.102436829000000 0.719559030000000 0.693047854000000
H 4.056621041000000 0.570036457000000 -1.054313434000000

01acetatemethanol105.wfx

