%nprocs=4
%mem=4GB
#p pbepbe aug-cc-pvtz output=wfx scf=(conver=6) int=(grid=ultrafine)

title

0 1
H 2.323552151000000 1.971306366000000 -0.246411344000000
O 3.242038147000000 2.349020688000000 -0.304495292000000
C 4.120013665000000 1.257459426000000 -0.234121540000000
H 5.142912972000000 1.638285367000000 -0.294028876000000
H 4.022512629000000 0.692111931000000 0.697386417000000
H 3.976696841000000 0.542589358000000 -1.049974871000000

01acetatemethanol_2.wfx

