%nprocs=4
%mem=4GB
#p pbepbe aug-cc-pvtz output=wfx scf=(conver=6) int=(grid=ultrafine)

title

0 1
H 2.358591571000000 2.032036918000000 -0.577059564000000
N 3.325234668000000 2.378226272000000 -0.618915071000000
C 4.203764407000000 1.272238900000000 -0.244130768000000
H 3.366565887000000 3.073767217000000 0.116943522000000
H 5.247634052000000 1.596828130000000 -0.264891127000000
H 3.997944581000000 0.831075775000000 0.736038541000000
H 4.088828419000000 0.471128339000000 -0.970243143000000

03acetatemethylamine_2.wfx

