%nprocs=4
%mem=4GB
#p pbepbe aug-cc-pvtz output=wfx scf=(conver=6) int=(grid=ultrafine)

title

-1 1
C -1.067681101000000 -0.271098200000000 0.098425590000000
C 0.361871421000000 0.290569279000000 -0.103737259000000
O 1.279845864000000 -0.562993045000000 -0.089531722000000
O 0.451018532000000 1.538347265000000 -0.258903660000000
H -1.274226455000000 -1.017247821000000 -0.669620680000000
H -1.122005113000000 -0.781585539000000 1.060825043000000
H -1.819051732000000 0.515321513000000 0.058342297000000
H 2.167929840000000 1.982692687000000 -0.545259914000000
N 3.134572937000000 2.328882041000000 -0.587115421000000
C 4.013102676000000 1.222894669000000 -0.212331118000000
H 5.056972321000000 1.547483899000000 -0.233091477000000
H 3.807282850000000 0.781731544000000 0.767838191000000
H 3.898166688000000 0.421784108000000 -0.938443493000000
H 3.175904156000000 3.024422986000000 0.148743172000000

03acetatemethylamine090.wfx

