%nprocs=4
%mem=4GB
#p pbepbe aug-cc-pvtz output=wfx scf=(conver=6) int=(grid=ultrafine)

title

-1 1
C -1.067681101000000 -0.271098200000000 0.098425590000000
C 0.361871421000000 0.290569279000000 -0.103737259000000
O 1.279845864000000 -0.562993045000000 -0.089531722000000
O 0.451018532000000 1.538347265000000 -0.258903660000000
H -1.274226455000000 -1.017247821000000 -0.669620680000000
H -1.122005113000000 -0.781585539000000 1.060825043000000
H -1.819051732000000 0.515321513000000 0.058342297000000
H 3.312473663000000 2.278906479000000 -0.736153456000000
N 4.279116760000000 2.625095833000000 -0.778008963000000
C 5.157646499000000 1.519108461000000 -0.403224660000000
H 6.201516144000000 1.843697691000000 -0.423985019000000
H 4.951826673000000 1.077945336000000 0.576944649000000
H 5.042710511000000 0.717997900000000 -1.129337035000000
H 4.320447979000000 3.320636778000000 -0.042150370000000

03acetatemethylamine150.wfx

