%nprocs=4
%mem=4GB
#p pbepbe aug-cc-pvtz output=wfx scf=(conver=6) int=(grid=ultrafine)

title

-1 1
C -1.067681101000000 -0.271098200000000 0.098425590000000
C 0.361871421000000 0.290569279000000 -0.103737259000000
O 1.279845864000000 -0.562993045000000 -0.089531722000000
O 0.451018532000000 1.538347265000000 -0.258903660000000
H -1.274226455000000 -1.017247821000000 -0.669620680000000
H -1.122005113000000 -0.781585539000000 1.060825043000000
H -1.819051732000000 0.515321513000000 0.058342297000000
H 2.549444447000000 2.081430618000000 -0.608891095000000
N 3.516087544000000 2.427619972000000 -0.650746602000000
C 4.394617283000000 1.321632600000000 -0.275962299000000
H 5.438486928000000 1.646221830000000 -0.296722658000000
H 4.188797457000000 0.880469475000000 0.704207010000000
H 4.279681295000000 0.520522039000000 -1.002074674000000
H 3.557418763000000 3.123160917000000 0.085111991000000

03acetatemethylamine110.wfx

