%nprocs=4
%mem=4GB
#p pbepbe aug-cc-pvtz output=wfx scf=(conver=6) int=(grid=ultrafine)

title

-1 1
C -1.067681101000000 -0.271098200000000 0.098425590000000
C 0.361871421000000 0.290569279000000 -0.103737259000000
O 1.279845864000000 -0.562993045000000 -0.089531722000000
O 0.451018532000000 1.538347265000000 -0.258903660000000
H -1.274226455000000 -1.017247821000000 -0.669620680000000
H -1.122005113000000 -0.781585539000000 1.060825043000000
H -1.819051732000000 0.515321513000000 0.058342297000000
H 2.835580403000000 2.155484066000000 -0.656614480000000
N 3.802223500000000 2.501673420000000 -0.698469987000000
C 4.680753239000000 1.395686048000000 -0.323685684000000
H 5.724622884000000 1.720275278000000 -0.344446043000000
H 4.474933413000000 0.954522923000000 0.656483625000000
H 4.565817251000000 0.594575487000000 -1.049798059000000
H 3.843554719000000 3.197214365000000 0.037388606000000

03acetatemethylamine125.wfx

