%nprocs=4
%mem=4GB
#p pbepbe aug-cc-pvtz output=wfx scf=(conver=6) int=(grid=ultrafine)

title

-1 1
C -1.067681101000000 -0.271098200000000 0.098425590000000
C 0.361871421000000 0.290569279000000 -0.103737259000000
O 1.279845864000000 -0.562993045000000 -0.089531722000000
O 0.451018532000000 1.538347265000000 -0.258903660000000
H -1.274226455000000 -1.017247821000000 -0.669620680000000
H -1.122005113000000 -0.781585539000000 1.060825043000000
H -1.819051732000000 0.515321513000000 0.058342297000000
H 4.266260183000000 2.525751306000000 -0.895231408000000
N 5.232903280000000 2.871940660000000 -0.937086915000000
C 6.111433019000000 1.765953288000000 -0.562302612000000
H 7.155302664000000 2.090542518000000 -0.583062971000000
H 5.905613193000000 1.324790163000000 0.417866697000000
H 5.996497031000000 0.964842727000000 -1.288414987000000
H 5.274234499000000 3.567481605000000 -0.201228322000000

03acetatemethylamine200.wfx

