%nprocs=4
%mem=4GB
#p pbepbe aug-cc-pvtz output=wfx scf=(conver=6) int=(grid=ultrafine)

title

1 1
C 0.687364580000000 -0.177705402000000 0.322869765000000
N -0.735021639000000 0.201185335000000 0.055690011000000
H -1.380118913000000 -0.452570111000000 0.496181898000000
H -0.945342769000000 1.128728697000000 0.420157622000000
H -0.914689681000000 0.199140171000000 -0.968987117000000
H 0.856655158000000 -1.164072485000000 -0.091484742000000
H 1.326952365000000 0.545866029000000 -0.167734951000000
H 0.859676716000000 -0.176826300000000 1.392473464000000
O -0.677073100000000 -0.017125772000000 -2.756311708000000
C -1.140229520000000 0.098275408000000 -3.878821610000000
H -0.559591019000000 -0.203202969000000 -4.754989571000000
H -2.142997030000000 0.503996519000000 -4.047580783000000

04methylammoniumformaldehyde105.wfx

