%nprocs=4
%mem=4GB
#p pbepbe aug-cc-pvtz output=wfx scf=(conver=6) int=(grid=ultrafine)

title

1 1
C 0.687364580000000 -0.177705402000000 0.322869765000000
N -0.735021639000000 0.201185335000000 0.055690011000000
H -1.380118913000000 -0.452570111000000 0.496181898000000
H -0.945342769000000 1.128728697000000 0.420157622000000
H -0.914689681000000 0.199140171000000 -0.968987117000000
H 0.856655158000000 -1.164072485000000 -0.091484742000000
H 1.326952365000000 0.545866029000000 -0.167734951000000
H 0.859676716000000 -0.176826300000000 1.392473464000000
O -0.699702004000000 0.003469850000000 -2.586099692000000
C -1.162858424000000 0.118871030000000 -3.708609594000000
H -0.582219923000000 -0.182607347000000 -4.584777555000000
H -2.165625934000000 0.524592141000000 -3.877368767000000

04methylammoniumformaldehyde095.wfx

