%nprocs=4
%mem=4GB
#p pbepbe aug-cc-pvtz output=wfx scf=(conver=6) int=(grid=ultrafine)

title

1 1
C 0.744768151000000 -0.082282053000000 -0.019173554000000
N -0.728438635000000 0.112146543000000 0.091161198000000
H -1.127753599000000 -0.526162012000000 0.776374088000000
H -0.947980520000000 1.055774181000000 0.403402411000000
H -1.224663286000000 -0.064847586000000 -0.881903869000000
H 0.932732220000000 -1.093480816000000 -0.362003654000000
H 1.212925665000000 0.074803757000000 0.945875964000000
H 1.132071711000000 0.628965038000000 -0.739788431000000
N -1.933642821000000 -0.346540830000000 -2.485598183000000
C -1.088585512000000 0.177679347000000 -3.583263868000000
H -2.103743028000000 -1.333733614000000 -2.651376940000000
H -1.529121848000000 0.022645900000000 -4.565164006000000
H -0.934726984000000 1.243486975000000 -3.438954584000000
H -0.121609688000000 -0.316857120000000 -3.557632034000000
H -2.851332673000000 0.083500011000000 -2.550757939000000

05methylammoniummethylamine110.wfx

