%nprocs=4
%mem=4GB
#p pbepbe aug-cc-pvtz output=wfx scf=(conver=6) int=(grid=ultrafine)

title

1 1
C 0.744768151000000 -0.082282053000000 -0.019173554000000
N -0.728438635000000 0.112146543000000 0.091161198000000
H -1.127753599000000 -0.526162012000000 0.776374088000000
H -0.947980520000000 1.055774181000000 0.403402411000000
H -1.224663286000000 -0.064847586000000 -0.881903869000000
H 0.932732220000000 -1.093480816000000 -0.362003654000000
H 1.212925665000000 0.074803757000000 0.945875964000000
H 1.132071711000000 0.628965038000000 -0.739788431000000
N -2.030316404000000 -0.384951382000000 -2.704271457000000
C -1.185259095000000 0.139268795000000 -3.801937142000000
H -2.200416611000000 -1.372144166000000 -2.870050214000000
H -1.625795431000000 -0.015764652000000 -4.783837280000000
H -1.031400567000000 1.205076423000000 -3.657627858000000
H -0.218283271000000 -0.355267672000000 -3.776305308000000
H -2.948006256000000 0.045089459000000 -2.769431213000000

05methylammoniummethylamine125.wfx

