%nprocs=4
%mem=4GB
#p pbepbe aug-cc-pvtz output=wfx scf=(conver=6) int=(grid=ultrafine)

title

1 1
C 0.744768151000000 -0.082282053000000 -0.019173554000000
N -0.728438635000000 0.112146543000000 0.091161198000000
H -1.127753599000000 -0.526162012000000 0.776374088000000
H -0.947980520000000 1.055774181000000 0.403402411000000
H -1.224663286000000 -0.064847586000000 -0.881903869000000
H 0.932732220000000 -1.093480816000000 -0.362003654000000
H 1.212925665000000 0.074803757000000 0.945875964000000
H 1.132071711000000 0.628965038000000 -0.739788431000000
N -1.804744709000000 -0.295326760000000 -2.194033817000000
C -0.959687400000000 0.228893417000000 -3.291699502000000
H -1.974844916000000 -1.282519544000000 -2.359812574000000
H -1.400223736000000 0.073859970000000 -4.273599640000000
H -0.805828872000000 1.294701045000000 -3.147390218000000
H 0.007288424000000 -0.265643050000000 -3.266067668000000
H -2.722434561000000 0.134714081000000 -2.259193573000000

05methylammoniummethylamine090.wfx

