%nprocs=4
%mem=4GB
#p pbepbe aug-cc-pvtz output=wfx scf=(conver=6) int=(grid=ultrafine)

title

0 1
N -1.869193765000000 -0.320933795000000 -2.339816000000000
C -1.024136456000000 0.203286382000000 -3.437481685000000
H -2.039293972000000 -1.308126579000000 -2.505594757000000
H -2.786883617000000 0.109107046000000 -2.404975756000000
H -1.464672792000000 0.048252935000000 -4.419381823000000
H -0.870277928000000 1.269094010000000 -3.293172401000000
H -0.057160632000000 -0.291250085000000 -3.411849851000000

05methylammoniummethylamine_2.wfx

