%nprocs=4
%mem=4GB
#p pbepbe aug-cc-pvtz output=wfx scf=(conver=6) int=(grid=ultrafine)

title

1 1
C 0.744768151000000 -0.082282053000000 -0.019173554000000
N -0.728438635000000 0.112146543000000 0.091161198000000
H -1.127753599000000 -0.526162012000000 0.776374088000000
H -0.947980520000000 1.055774181000000 0.403402411000000
H -1.224663286000000 -0.064847586000000 -0.881903869000000
H 0.932732220000000 -1.093480816000000 -0.362003654000000
H 1.212925665000000 0.074803757000000 0.945875964000000
H 1.132071711000000 0.628965038000000 -0.739788431000000
N -2.513684322000000 -0.577004142000000 -3.797637828000000
C -1.668627013000000 -0.052783965000000 -4.895303513000000
H -2.683784529000000 -1.564196926000000 -3.963416585000000
H -2.109163349000000 -0.207817412000000 -5.877203651000000
H -1.514768485000000 1.013023663000000 -4.750994229000000
H -0.701651189000000 -0.547320432000000 -4.869671679000000
H -3.431374174000000 -0.146963301000000 -3.862797584000000

05methylammoniummethylamine200.wfx

