%nprocs=4
%mem=4GB
#p pbepbe aug-cc-pvtz output=wfx scf=(conver=6) int=(grid=ultrafine)

title

1 1
C 0.744768151000000 -0.082282053000000 -0.019173554000000
N -0.728438635000000 0.112146543000000 0.091161198000000
H -1.127753599000000 -0.526162012000000 0.776374088000000
H -0.947980520000000 1.055774181000000 0.403402411000000
H -1.224663286000000 -0.064847586000000 -0.881903869000000
H 0.932732220000000 -1.093480816000000 -0.362003654000000
H 1.212925665000000 0.074803757000000 0.945875964000000
H 1.132071711000000 0.628965038000000 -0.739788431000000
N -2.191439044000000 -0.448968968000000 -3.068726914000000
C -1.346381735000000 0.075251209000000 -4.166392599000000
H -2.361539251000000 -1.436161752000000 -3.234505671000000
H -1.786918071000000 -0.079782238000000 -5.148292737000000
H -1.192523207000000 1.141058837000000 -4.022083315000000
H -0.379405911000000 -0.419285258000000 -4.140760765000000
H -3.109128896000000 -0.018928127000000 -3.133886670000000

05methylammoniummethylamine150.wfx

