%nprocs=4
%mem=4GB
#p pbepbe aug-cc-pvtz output=wfx scf=(conver=6) int=(grid=ultrafine)

title

1 1
C 0.687041485000000 -0.021348442000000 0.158244910000000
N -0.796548184000000 0.105617965000000 0.039344613000000
H -1.270243847000000 -0.509648168000000 0.698373151000000
H -1.103958172000000 1.055158108000000 0.241676877000000
H -1.110658397000000 -0.147584181000000 -0.934324277000000
H 0.958993985000000 -1.044759456000000 -0.070634654000000
H 0.990678267000000 0.235706496000000 1.166097459000000
H 1.144634560000000 0.652587758000000 -0.556167114000000
O -1.555918709000000 -0.803837541000000 -3.266306679000000
C -1.216419710000000 -0.057349654000000 -4.451322502000000
H -2.146212000000000 -1.518827531000000 -3.523051561000000
H -2.101746305000000 0.389274765000000 -4.894960755000000
H -0.536568942000000 0.730447265000000 -4.144850249000000
H -0.715262962000000 -0.694224675000000 -5.174408724000000

06methylammoniummethanol150.wfx

