%nprocs=4
%mem=4GB
#p pbepbe aug-cc-pvtz output=wfx scf=(conver=6) int=(grid=ultrafine)

title

1 1
C 0.687041485000000 -0.021348442000000 0.158244910000000
N -0.796548184000000 0.105617965000000 0.039344613000000
H -1.270243847000000 -0.509648168000000 0.698373151000000
H -1.103958172000000 1.055158108000000 0.241676877000000
H -1.110658397000000 -0.147584181000000 -0.934324277000000
H 0.958993985000000 -1.044759456000000 -0.070634654000000
H 0.990678267000000 0.235706496000000 1.166097459000000
H 1.144634560000000 0.652587758000000 -0.556167114000000
O -1.481711670000000 -0.694466421000000 -2.877658725000000
C -1.142212671000000 0.052021466000000 -4.062674548000000
H -2.072004961000000 -1.409456411000000 -3.134403607000000
H -2.027539266000000 0.498645885000000 -4.506312801000000
H -0.462361903000000 0.839818385000000 -3.756202295000000
H -0.641055923000000 -0.584853555000000 -4.785760770000000

06methylammoniummethanol125.wfx

