%nprocs=4
%mem=4GB
#p pbepbe aug-cc-pvtz output=wfx scf=(conver=6) int=(grid=ultrafine)

title

1 1
C 0.687041485000000 -0.021348442000000 0.158244910000000
N -0.796548184000000 0.105617965000000 0.039344613000000
H -1.270243847000000 -0.509648168000000 0.698373151000000
H -1.103958172000000 1.055158108000000 0.241676877000000
H -1.110658397000000 -0.147584181000000 -0.934324277000000
H 0.958993985000000 -1.044759456000000 -0.070634654000000
H 0.990678267000000 0.235706496000000 1.166097459000000
H 1.144634560000000 0.652587758000000 -0.556167114000000
O -1.704332788000000 -1.022579780000000 -4.043602588000000
C -1.364833789000000 -0.276091893000000 -5.228618411000000
H -2.294626079000000 -1.737569770000000 -4.300347470000000
H -2.250160384000000 0.170532526000000 -5.672256664000000
H -0.684983021000000 0.511705026000000 -4.922146158000000
H -0.863677041000000 -0.912966914000000 -5.951704633000000

06methylammoniummethanol200.wfx

