%nprocs=4
%mem=4GB
#p pbepbe aug-cc-pvtz output=wfx scf=(conver=6) int=(grid=ultrafine)

title

0 1
O -1.407504631000000 -0.585095302000000 -2.489010770000000
C -1.068005632000000 0.161392585000000 -3.674026593000000
H -1.997797922000000 -1.300085292000000 -2.745755652000000
H -1.953332227000000 0.608017004000000 -4.117664846000000
H -0.388154864000000 0.949189504000000 -3.367554340000000
H -0.566848884000000 -0.475482436000000 -4.397112815000000

06methylammoniummethanol_2.wfx

