%nprocs=4
%mem=4GB
#p pbepbe aug-cc-pvtz output=wfx scf=(conver=6) int=(grid=ultrafine)

title

1 1
C 0.687041485000000 -0.021348442000000 0.158244910000000
N -0.796548184000000 0.105617965000000 0.039344613000000
H -1.270243847000000 -0.509648168000000 0.698373151000000
H -1.103958172000000 1.055158108000000 0.241676877000000
H -1.110658397000000 -0.147584181000000 -0.934324277000000
H 0.958993985000000 -1.044759456000000 -0.070634654000000
H 0.990678267000000 0.235706496000000 1.166097459000000
H 1.144634560000000 0.652587758000000 -0.556167114000000
O -1.392663223000000 -0.563221078000000 -2.411281179000000
C -1.053164224000000 0.183266809000000 -3.596297002000000
H -1.982956514000000 -1.278211068000000 -2.668026061000000
H -1.938490819000000 0.629891228000000 -4.039935255000000
H -0.373313456000000 0.971063728000000 -3.289824749000000
H -0.552007476000000 -0.453608212000000 -4.319383224000000

06methylammoniummethanol095.wfx

