%nprocs=4
%mem=4GB
#p pbepbe aug-cc-pvtz output=wfx scf=(conver=6) int=(grid=ultrafine)

title

0 1
O -1.621902384000000 -0.405938406000000 -2.518774555000000
H -1.424849813000000 0.103890660000000 -3.310162799000000
H -2.253608383000000 -1.070520461000000 -2.809529101000000

07methylammoniumwater_2.wfx

