%nprocs=4
%mem=4GB
#p pbepbe aug-cc-pvtz output=wfx scf=(conver=6) int=(grid=ultrafine)

title

1 1
C 0.729910353000000 -0.067791535000000 0.057095373000000
N -0.757044007000000 0.087897962000000 0.041272775000000
H -1.200812907000000 -0.569235636000000 0.680770653000000
H -1.033508938000000 1.024135700000000 0.332440612000000
H -1.137879313000000 -0.081658460000000 -0.916293500000000
H 1.155255605000000 0.657321778000000 -0.626319371000000
H 1.094665015000000 0.102560205000000 1.062985612000000
H 0.969275613000000 -1.072917859000000 -0.268483642000000
O -1.646102118000000 -0.422151453000000 -2.598893909000000
H -1.449049547000000 0.087677613000000 -3.390282153000000
H -2.277808117000000 -1.086733508000000 -2.889648455000000

07methylammoniumwater105.wfx

