%nprocs=4
%mem=4GB
#p pbepbe aug-cc-pvtz output=wfx scf=(conver=6) int=(grid=ultrafine)

title

1 1
C -0.105081656000000 0.282413741000000 0.022074441000000
N -0.785227591000000 -0.820652291000000 -0.288990507000000
N -0.745585479000000 1.421570007000000 0.253246903000000
N 1.219250263000000 0.252146159000000 0.103458752000000
H -1.744037401000000 1.479987848000000 0.172685895000000
H 1.727462291000000 -0.601259621000000 -0.038822645000000
H 1.721470076000000 1.097144758000000 0.339497536000000
H -0.216089211000000 2.249292326000000 0.491002112000000
H -1.787472355000000 -0.815092404000000 -0.340300985000000
H -0.312365218000000 -1.684834579000000 -0.480883846000000
O 1.539755146000000 2.949034271000000 0.779744644000000
C 2.161412426000000 3.956914803000000 1.070362917000000
H 3.253138485000000 3.948257741000000 1.146325065000000
H 1.648364504000000 4.903821501000000 1.264983385000000

08guanidiniumformaldehyde095.wfx

