%nprocs=4
%mem=4GB
#p pbepbe aug-cc-pvtz output=wfx scf=(conver=6) int=(grid=ultrafine)

title

1 1
C -0.022632781000000 0.158889311000000 -0.003491152000000
N -1.034258337000000 -0.697533791000000 0.152948303000000
N -0.072073363000000 1.381821873000000 0.487979803000000
N 1.062328053000000 -0.233142965000000 -0.675554069000000
H -0.920522620000000 1.713004355000000 0.912119915000000
H 1.204431006000000 -1.196369662000000 -0.918176231000000
H 1.826844953000000 0.406007458000000 -0.798617863000000
H -1.049138495000000 -1.576370701000000 -0.331757120000000
H 0.758041219000000 2.014066447000000 0.417577832000000
H -1.851470832000000 -0.438033553000000 0.674514141000000
N 3.515638951000000 4.285894860000000 0.306600159000000
C 3.008212793000000 5.387317614000000 1.152402905000000
H 3.751408953000000 4.666422152000000 -0.603612341000000
H 3.708307471000000 6.213928805000000 1.254679687000000
H 2.087116259000000 5.771984768000000 0.721948697000000
H 2.786332801000000 5.002014639000000 2.144256946000000
H 4.398043033000000 3.969420276000000 0.693918667000000

09guanidiniummethylamine200.wfx

