%nprocs=4
%mem=4GB
#p pbepbe aug-cc-pvtz output=wfx scf=(conver=6) int=(grid=ultrafine)

title

1 1
C -0.022632781000000 0.158889311000000 -0.003491152000000
N -1.034258337000000 -0.697533791000000 0.152948303000000
N -0.072073363000000 1.381821873000000 0.487979803000000
N 1.062328053000000 -0.233142965000000 -0.675554069000000
H -0.920522620000000 1.713004355000000 0.912119915000000
H 1.204431006000000 -1.196369662000000 -0.918176231000000
H 1.826844953000000 0.406007458000000 -0.798617863000000
H -1.049138495000000 -1.576370701000000 -0.331757120000000
H 0.758041219000000 2.014066447000000 0.417577832000000
H -1.851470832000000 -0.438033553000000 0.674514141000000
N 2.481568730000000 3.433983038000000 0.348215622000000
C 1.974142572000000 4.535405792000000 1.194018368000000
H 2.717338732000000 3.814510330000000 -0.561996878000000
H 2.674237250000000 5.362016983000000 1.296295150000000
H 1.053046038000000 4.920072946000000 0.763564160000000
H 1.752262580000000 4.150102817000000 2.185872409000000
H 3.363972812000000 3.117508454000000 0.735534130000000

09guanidiniummethylamine125.wfx

