%nprocs=4
%mem=4GB
#p pbepbe aug-cc-pvtz output=wfx scf=(conver=6) int=(grid=ultrafine)

title

1 1
C -0.022632781000000 0.158889311000000 -0.003491152000000
N -1.034258337000000 -0.697533791000000 0.152948303000000
N -0.072073363000000 1.381821873000000 0.487979803000000
N 1.062328053000000 -0.233142965000000 -0.675554069000000
H -0.920522620000000 1.713004355000000 0.912119915000000
H 1.204431006000000 -1.196369662000000 -0.918176231000000
H 1.826844953000000 0.406007458000000 -0.798617863000000
H -1.049138495000000 -1.576370701000000 -0.331757120000000
H 0.758041219000000 2.014066447000000 0.417577832000000
H -1.851470832000000 -0.438033553000000 0.674514141000000
N 1.999002628000000 3.036424188000000 0.367636172000000
C 1.491576470000000 4.137846942000000 1.213438918000000
H 2.234772630000000 3.416951480000000 -0.542576328000000
H 2.191671148000000 4.964458133000000 1.315715700000000
H 0.570479936000000 4.522514096000000 0.782984710000000
H 1.269696478000000 3.752543967000000 2.205292959000000
H 2.881406710000000 2.719949604000000 0.754954680000000

09guanidiniummethylamine090.wfx

