%nprocs=4
%mem=4GB
#p pbepbe aug-cc-pvtz output=wfx scf=(conver=6) int=(grid=ultrafine)

title

1 1
C -0.022632781000000 0.158889311000000 -0.003491152000000
N -1.034258337000000 -0.697533791000000 0.152948303000000
N -0.072073363000000 1.381821873000000 0.487979803000000
N 1.062328053000000 -0.233142965000000 -0.675554069000000
H -0.920522620000000 1.713004355000000 0.912119915000000
H 1.204431006000000 -1.196369662000000 -0.918176231000000
H 1.826844953000000 0.406007458000000 -0.798617863000000
H -1.049138495000000 -1.576370701000000 -0.331757120000000
H 0.758041219000000 2.014066447000000 0.417577832000000
H -1.851470832000000 -0.438033553000000 0.674514141000000
N 2.274754686000000 3.263600673000000 0.356538715000000
C 1.767328528000000 4.365023427000000 1.202341461000000
H 2.510524688000000 3.644127965000000 -0.553673785000000
H 2.467423206000000 5.191634618000000 1.304618243000000
H 0.846231994000000 4.749690581000000 0.771887253000000
H 1.545448536000000 3.979720452000000 2.194195502000000
H 3.157158768000000 2.947126089000000 0.743857223000000

09guanidiniummethylamine110.wfx

