%nprocs=4
%mem=4GB
#p pbepbe aug-cc-pvtz output=wfx scf=(conver=6) int=(grid=ultrafine)

title

1 1
C -0.022632781000000 0.158889311000000 -0.003491152000000
N -1.034258337000000 -0.697533791000000 0.152948303000000
N -0.072073363000000 1.381821873000000 0.487979803000000
N 1.062328053000000 -0.233142965000000 -0.675554069000000
H -0.920522620000000 1.713004355000000 0.912119915000000
H 1.204431006000000 -1.196369662000000 -0.918176231000000
H 1.826844953000000 0.406007458000000 -0.798617863000000
H -1.049138495000000 -1.576370701000000 -0.331757120000000
H 0.758041219000000 2.014066447000000 0.417577832000000
H -1.851470832000000 -0.438033553000000 0.674514141000000
N 2.826258804000000 3.717953645000000 0.334343801000000
C 2.318832646000000 4.819376399000000 1.180146547000000
H 3.062028806000000 4.098480937000000 -0.575868699000000
H 3.018927324000000 5.645987590000000 1.282423329000000
H 1.397736112000000 5.204043553000000 0.749692339000000
H 2.096952654000000 4.434073424000000 2.172000588000000
H 3.708662886000000 3.401479061000000 0.721662309000000

09guanidiniummethylamine150.wfx

