%nprocs=4
%mem=4GB
#p pbepbe aug-cc-pvtz output=wfx scf=(conver=6) int=(grid=ultrafine)

title

1 1
C -0.081972325000000 0.353680588000000 0.028076102000000
N -0.781386068000000 -0.780045332000000 -0.011075941000000
N -0.700530775000000 1.527575229000000 0.063558364000000
N 1.245079059000000 0.328413353000000 0.036872021000000
H -1.701484618000000 1.589975232000000 0.033190952000000
H 1.750062669000000 -0.538343991000000 0.016503262000000
H 1.745755146000000 1.209639567000000 0.055791883000000
H -0.322300090000000 -1.672024252000000 -0.041041434000000
H -0.137793105000000 2.370660847000000 0.078458926000000
H -1.784932170000000 -0.770876464000000 -0.005828173000000
O 1.534541614000000 2.976407830000000 0.149152943000000
C 1.953501829000000 3.644140818000000 1.355999741000000
H 1.853515683000000 3.499200296000000 -0.593750640000000
H 3.037384054000000 3.699441842000000 1.414409870000000
H 1.529672184000000 4.643154456000000 1.415719165000000
H 1.583103684000000 3.051853599000000 2.185892808000000

10guanidiniummethanol090.wfx

