%nprocs=4
%mem=4GB
#p pbepbe aug-cc-pvtz output=wfx scf=(conver=6) int=(grid=ultrafine)

title

1 1
C -0.081972325000000 0.353680588000000 0.028076102000000
N -0.781386068000000 -0.780045332000000 -0.011075941000000
N -0.700530775000000 1.527575229000000 0.063558364000000
N 1.245079059000000 0.328413353000000 0.036872021000000
H -1.701484618000000 1.589975232000000 0.033190952000000
H 1.750062669000000 -0.538343991000000 0.016503262000000
H 1.745755146000000 1.209639567000000 0.055791883000000
H -0.322300090000000 -1.672024252000000 -0.041041434000000
H -0.137793105000000 2.370660847000000 0.078458926000000
H -1.784932170000000 -0.770876464000000 -0.005828173000000
O 1.962524227000000 3.670791980000000 0.181208826000000
C 2.381484442000000 4.338524968000000 1.388055624000000
H 2.281498296000000 4.193584446000000 -0.561694757000000
H 3.465366667000000 4.393825992000000 1.446465753000000
H 1.957654797000000 5.337538606000000 1.447775048000000
H 2.011086297000000 3.746237749000000 2.217948691000000

10guanidiniummethanol125.wfx

