%nprocs=4
%mem=4GB
#p pbepbe aug-cc-pvtz output=wfx scf=(conver=6) int=(grid=ultrafine)

title

1 1
C -0.081972325000000 0.353680588000000 0.028076102000000
N -0.781386068000000 -0.780045332000000 -0.011075941000000
N -0.700530775000000 1.527575229000000 0.063558364000000
N 1.245079059000000 0.328413353000000 0.036872021000000
H -1.701484618000000 1.589975232000000 0.033190952000000
H 1.750062669000000 -0.538343991000000 0.016503262000000
H 1.745755146000000 1.209639567000000 0.055791883000000
H -0.322300090000000 -1.672024252000000 -0.041041434000000
H -0.137793105000000 2.370660847000000 0.078458926000000
H -1.784932170000000 -0.770876464000000 -0.005828173000000
O 1.599648011000000 3.082040275000000 0.154029410000000
C 2.018608226000000 3.749773263000000 1.360876208000000
H 1.918622080000000 3.604832741000000 -0.588874173000000
H 3.102490451000000 3.805074287000000 1.419286337000000
H 1.594778581000000 4.748786901000000 1.420595632000000
H 1.648210081000000 3.157486044000000 2.190769275000000

10guanidiniummethanol095.wfx

