%nprocs=4
%mem=4GB
#p pbepbe aug-cc-pvtz output=wfx scf=(conver=6) int=(grid=ultrafine)

title

1 1
C -0.081972325000000 0.353680588000000 0.028076102000000
N -0.781386068000000 -0.780045332000000 -0.011075941000000
N -0.700530775000000 1.527575229000000 0.063558364000000
N 1.245079059000000 0.328413353000000 0.036872021000000
H -1.701484618000000 1.589975232000000 0.033190952000000
H 1.750062669000000 -0.538343991000000 0.016503262000000
H 1.745755146000000 1.209639567000000 0.055791883000000
H -0.322300090000000 -1.672024252000000 -0.041041434000000
H -0.137793105000000 2.370660847000000 0.078458926000000
H -1.784932170000000 -0.770876464000000 -0.005828173000000
O 1.662952247000000 3.184748790000000 0.158770895000000
C 2.081912462000000 3.852481778000000 1.365617693000000
H 1.981926316000000 3.707541256000000 -0.584132688000000
H 3.165794687000000 3.907782802000000 1.424027822000000
H 1.658082817000000 4.851495416000000 1.425337117000000
H 1.711514317000000 3.260194559000000 2.195510760000000

10guanidiniummethanol100.wfx

