%nprocs=4
%mem=4GB
#p pbepbe aug-cc-pvtz output=wfx scf=(conver=6) int=(grid=ultrafine)

title

1 1
C 4.992080318000000 5.502206312000000 0.460294537000000
C 4.142932018000000 5.064052621000000 1.440422070000000
N 4.048348407000000 6.071858981000000 2.363217606000000
C 4.803200065000000 7.101898305000000 1.985225154000000
N 5.381732667000000 6.764409591000000 0.827845316000000
H 3.615689853000000 4.134288605000000 1.542678623000000
H 3.490538328000000 6.073564561000000 3.229990672000000
H 5.336891356000000 5.028852818000000 -0.439807530000000
H 6.011779025000000 7.360007188000000 0.309997930000000
H 4.923000524000000 8.029870783000000 2.513374890000000
O 2.591358224000000 6.707907411000000 5.113647111000000
C 1.851716678000000 6.417567117000000 6.037447656000000
H 1.341746026000000 5.449383815000000 6.082976723000000
H 1.673936530000000 7.121842218000000 6.855585700000000

12imidazoliumformaldehyde125.wfx

