%nprocs=4
%mem=4GB
#p pbepbe aug-cc-pvtz output=wfx scf=(conver=6) int=(grid=ultrafine)

title

1 1
C 4.992080318000000 5.502206312000000 0.460294537000000
C 4.142932018000000 5.064052621000000 1.440422070000000
N 4.048348407000000 6.071858981000000 2.363217606000000
C 4.803200065000000 7.101898305000000 1.985225154000000
N 5.381732667000000 6.764409591000000 0.827845316000000
H 3.615689853000000 4.134288605000000 1.542678623000000
H 3.490538328000000 6.073564561000000 3.229990672000000
H 5.336891356000000 5.028852818000000 -0.439807530000000
H 6.011779025000000 7.360007188000000 0.309997930000000
H 4.923000524000000 8.029870783000000 2.513374890000000
O 2.771227219000000 6.581015579000000 4.736846747000000
C 2.031585673000000 6.290675285000000 5.660647292000000
H 1.521615021000000 5.322491983000000 5.706176359000000
H 1.853805525000000 6.994950386000000 6.478785336000000

12imidazoliumformaldehyde100.wfx

