%nprocs=4
%mem=4GB
#p pbepbe aug-cc-pvtz output=wfx scf=(conver=6) int=(grid=ultrafine)

title

1 1
C 4.999742982000000 5.656478915000000 0.500699101000000
C 4.164862142000000 5.017473257000000 1.379027829000000
N 3.939509304000000 5.868794127000000 2.428963225000000
C 4.608365297000000 6.999915738000000 2.218084680000000
N 5.256490848000000 6.884805521000000 1.050371362000000
H 3.728431744000000 4.037328478000000 1.328268100000000
H 3.316944545000000 5.657789713000000 3.312404450000000
H 4.631794200000000 7.858375587000000 2.863794077000000
H 5.416541405000000 5.343987339000000 -0.438462413000000
H 5.844006700000000 7.599873278000000 0.647217331000000
N 2.312526594000000 5.304391511000000 4.606977211000000
H 2.636757833000000 4.486879974000000 5.113485318000000
C 0.929920915000000 5.064931449000000 4.140198508000000
H 0.572793076000000 5.947400104000000 3.617006542000000
H 0.928786016000000 4.232295352000000 3.442398344000000
H 0.241198474000000 4.837552036000000 4.950538571000000
H 2.300579460000000 6.047662665000000 5.297721904000000

13imidazoliummethylamine105.wfx

