%nprocs=4
%mem=4GB
#p pbepbe aug-cc-pvtz output=wfx scf=(conver=6) int=(grid=ultrafine)

title

1 1
C 4.999742982000000 5.656478915000000 0.500699101000000
C 4.164862142000000 5.017473257000000 1.379027829000000
N 3.939509304000000 5.868794127000000 2.428963225000000
C 4.608365297000000 6.999915738000000 2.218084680000000
N 5.256490848000000 6.884805521000000 1.050371362000000
H 3.728431744000000 4.037328478000000 1.328268100000000
H 3.316944545000000 5.657789713000000 3.312404450000000
H 4.631794200000000 7.858375587000000 2.863794077000000
H 5.416541405000000 5.343987339000000 -0.438462413000000
H 5.844006700000000 7.599873278000000 0.647217331000000
N 1.403821711000000 4.984669356000000 5.778187450000000
H 1.728052950000000 4.167157819000000 6.284695557000000
C 0.021216032000000 4.745209294000000 5.311408747000000
H -0.335911807000000 5.627677949000000 4.788216781000000
H 0.020081133000000 3.912573197000000 4.613608583000000
H -0.667506409000000 4.517829881000000 6.121748810000000
H 1.391874577000000 5.727940510000000 6.468932143000000

13imidazoliummethylamine200.wfx

