%nprocs=4
%mem=4GB
#p pbepbe aug-cc-pvtz output=wfx scf=(conver=6) int=(grid=ultrafine)

title

1 1
C 4.999742982000000 5.656478915000000 0.500699101000000
C 4.164862142000000 5.017473257000000 1.379027829000000
N 3.939509304000000 5.868794127000000 2.428963225000000
C 4.608365297000000 6.999915738000000 2.218084680000000
N 5.256490848000000 6.884805521000000 1.050371362000000
H 3.728431744000000 4.037328478000000 1.328268100000000
H 3.316944545000000 5.657789713000000 3.312404450000000
H 4.631794200000000 7.858375587000000 2.863794077000000
H 5.416541405000000 5.343987339000000 -0.438462413000000
H 5.844006700000000 7.599873278000000 0.647217331000000
N 2.360413089000000 5.321240076000000 4.545257334000000
H 2.684644328000000 4.503728539000000 5.051765441000000
C 0.977807410000000 5.081780014000000 4.078478631000000
H 0.620679571000000 5.964248669000000 3.555286665000000
H 0.976672511000000 4.249143917000000 3.380678467000000
H 0.289084969000000 4.854400601000000 4.888818694000000
H 2.348465955000000 6.064511230000000 5.236002027000000

13imidazoliummethylamine100.wfx

