%nprocs=4
%mem=4GB
#p pbepbe aug-cc-pvtz output=wfx scf=(conver=6) int=(grid=ultrafine)

title

1 1
C 4.999742982000000 5.656478915000000 0.500699101000000
C 4.164862142000000 5.017473257000000 1.379027829000000
N 3.939509304000000 5.868794127000000 2.428963225000000
C 4.608365297000000 6.999915738000000 2.218084680000000
N 5.256490848000000 6.884805521000000 1.050371362000000
H 3.728431744000000 4.037328478000000 1.328268100000000
H 3.316944545000000 5.657789713000000 3.312404450000000
H 4.631794200000000 7.858375587000000 2.863794077000000
H 5.416541405000000 5.343987339000000 -0.438462413000000
H 5.844006700000000 7.599873278000000 0.647217331000000
N 2.121221309000000 5.237081938000000 4.853546490000000
H 2.445452548000000 4.419570401000000 5.360054597000000
C 0.738615630000000 4.997621876000000 4.386767787000000
H 0.381487791000000 5.880090531000000 3.863575821000000
H 0.737480731000000 4.164985779000000 3.688967623000000
H 0.049893189000000 4.770242463000000 5.197107850000000
H 2.109274175000000 5.980353092000000 5.544291183000000

13imidazoliummethylamine125.wfx

