%nprocs=4
%mem=4GB
#p pbepbe aug-cc-pvtz output=wfx scf=(conver=6) int=(grid=ultrafine)

title

0 1
N 2.360413089000000 5.321240076000000 4.545257334000000
H 2.684644328000000 4.503728539000000 5.051765441000000
C 0.977807410000000 5.081780014000000 4.078478631000000
H 2.348465955000000 6.064511230000000 5.236002027000000
H 0.620679571000000 5.964248669000000 3.555286665000000
H 0.976672511000000 4.249143917000000 3.380678467000000
H 0.289084969000000 4.854400601000000 4.888818694000000

13imidazoliummethylamine_2.wfx

