%nprocs=4
%mem=4GB
#p pbepbe aug-cc-pvtz output=wfx scf=(conver=6) int=(grid=ultrafine)

title

1 1
C 5.149867812000000 5.781166695000000 0.454915895000000
C 4.310331875000000 4.996348260000000 1.199035769000000
N 3.949484344000000 5.726378549000000 2.300513163000000
C 4.535679925000000 6.921018621000000 2.255243186000000
N 5.268418880000000 6.964890399000000 1.136262329000000
H 3.954151378000000 3.997818400000000 1.027940865000000
H 3.315215265000000 5.411421924000000 3.069161162000000
H 4.439502186000000 7.706358470000000 2.982065199000000
H 5.654340822000000 5.595095678000000 -0.474727925000000
H 5.822762606000000 7.757809794000000 0.847037700000000
O 1.259270972000000 4.582671643000000 5.486309889000000
H 1.509177803000000 4.126366465000000 6.294960657000000
C -0.175391432000000 4.671056489000000 5.438625898000000
H -0.427638935000000 5.178534163000000 4.513801960000000
H -0.626228887000000 3.682304522000000 5.435706294000000
H -0.555109554000000 5.250702279000000 6.275565243000000

14imidazoliummethanol200.wfx

