%nprocs=4
%mem=4GB
#p pbepbe aug-cc-pvtz output=wfx scf=(conver=6) int=(grid=ultrafine)

title

1 1
C 5.149867812000000 5.781166695000000 0.454915895000000
C 4.310331875000000 4.996348260000000 1.199035769000000
N 3.949484344000000 5.726378549000000 2.300513163000000
C 4.535679925000000 6.921018621000000 2.255243186000000
N 5.268418880000000 6.964890399000000 1.136262329000000
H 3.954151378000000 3.997818400000000 1.027940865000000
H 3.315215265000000 5.411421924000000 3.069161162000000
H 4.439502186000000 7.706358470000000 2.982065199000000
H 5.654340822000000 5.595095678000000 -0.474727925000000
H 5.822762606000000 7.757809794000000 0.847037700000000
O 2.030226574000000 4.893443522000000 4.579906754000000
H 2.280133405000000 4.437138344000000 5.388557522000000
C 0.595564170000000 4.981828368000000 4.532222763000000
H 0.343316667000000 5.489306042000000 3.607398825000000
H 0.144726715000000 3.993076401000000 4.529303159000000
H 0.215846048000000 5.561474158000000 5.369162108000000

14imidazoliummethanol125.wfx

