%nprocs=4
%mem=4GB
#p pbepbe aug-cc-pvtz output=wfx scf=(conver=6) int=(grid=ultrafine)

title

1 1
C 5.082425230000000 5.694110213000000 0.467816815000000
C 4.219648710000000 4.994294021000000 1.267596178000000
N 3.928118405000000 5.797286100000000 2.338420520000000
C 4.577383461000000 6.954219633000000 2.222006001000000
N 5.282709241000000 6.901057178000000 1.086603578000000
H 3.803644392000000 4.010622797000000 1.155484436000000
H 5.553083545000000 5.435055031000000 -0.462004958000000
H 4.542504567000000 7.778104465000000 2.910688070000000
H 5.872413711000000 7.646727047000000 0.745823201000000
H 3.300294311000000 5.554620966000000 3.125722341000000
O 1.247244146000000 4.798664983000000 5.729263305000000
H 1.478276900000000 4.338993704000000 6.541175903000000
H 0.295828576000000 4.925911545000000 5.779190893000000

15imidazoliumwater200.wfx

