%nprocs=4
%mem=4GB
#p pbepbe aug-cc-pvtz output=wfx scf=(conver=6) int=(grid=ultrafine)

title

1 1
C 5.082425230000000 5.694110213000000 0.467816815000000
C 4.219648710000000 4.994294021000000 1.267596178000000
N 3.928118405000000 5.797286100000000 2.338420520000000
C 4.577383461000000 6.954219633000000 2.222006001000000
N 5.282709241000000 6.901057178000000 1.086603578000000
H 3.803644392000000 4.010622797000000 1.155484436000000
H 5.553083545000000 5.435055031000000 -0.462004958000000
H 4.542504567000000 7.778104465000000 2.910688070000000
H 5.872413711000000 7.646727047000000 0.745823201000000
H 3.300294311000000 5.554620966000000 3.125722341000000
O 2.017115319000000 5.082140140000000 4.752964153000000
H 2.248148073000000 4.622468861000000 5.564876751000000
H 1.065699749000000 5.209386702000000 4.802891741000000

15imidazoliumwater125.wfx

