%nprocs=4
%mem=4GB
#p pbepbe aug-cc-pvtz output=wfx scf=(conver=6) int=(grid=ultrafine)

title

0 1
c -0.104106413833414 -0.055708774387601 -1.216915116225708
n 0.688602679648076 -0.155161564256874 0.000000000000000
h 1.414006569720350 0.551707070847208 0.000000000000000
c -0.104106413833414 -0.055708774387601 1.216915116225708
h 0.552979761876583 -0.083979211876118 -2.088096497238739
h -0.722956446444404 0.856291749811232 -1.278330428872121
h -0.777221526282978 -0.914876516842683 -1.284385948159610
h -0.777221526282978 -0.914876516842683 1.284385948159610
h -0.722956446444404 0.856291749811232 1.278330428872121
h 0.552979761876583 -0.083979211876118 2.088096497238739

E23.wfx

