%nprocs=4
%mem=4GB
#p pbepbe aug-cc-pvtz output=wfx scf=(conver=6) int=(grid=ultrafine)

title

1 1
c 0.000000000000000 0.000000000000000 -0.971089317371440
p 0.000000000000000 0.000000000000000 0.844094994389167
h -0.651676956060560 1.128737598018722 1.370201416619850
h -0.651676956060560 -1.128737598018722 1.370201416619850
h 1.303353912121121 0.000000000000000 1.370201416619850
h -1.030385573632950 0.000000000000000 -1.327869975625754
h 0.515192786816478 0.892340082459137 -1.327869975625754
h 0.515192786816478 -0.892340082459137 -1.327869975625754

E33.wfx

