%nprocs=4
%mem=4GB
#p pbepbe aug-cc-pvtz output=wfx scf=(conver=6) int=(grid=ultrafine)

title

0 1
f -1.708856791735980 -0.276415771680467 0.000000000000000
c -0.510142200057546 0.347364010591599 0.000000000000000
c 0.627318073424864 -0.319094621707515 0.000000000000000
h -0.621491217633191 1.424445958933582 0.000000000000000
h 0.651609017112659 -1.400614944215591 0.000000000000000
h 1.561563118889194 0.224315368078392 0.000000000000000

E4.wfx

