%nprocs=4
%mem=4GB
#p pbepbe aug-cc-pvtz output=wfx scf=(conver=6) int=(grid=ultrafine)

title

0 1
c -0.887870439379156 -0.887870439379156 -0.887870439379156
c 0.000000000000000 0.000000000000000 0.000000000000000
c 0.887870439379156 0.887870439379156 -0.887870439379156
c -0.887870439379156 0.887870439379156 0.887870439379156
c 0.887870439379156 -0.887870439379156 0.887870439379156
h -1.531767710926617 -0.282307366830596 -1.531767710926617
h -0.282307366830596 -1.531767710926617 -1.531767710926617
h -1.531767710926617 -1.531767710926617 -0.282307366830596
h 0.282307366830596 1.531767710926617 -1.531767710926617
h 1.531767710926617 1.531767710926617 -0.282307366830596
h 1.531767710926617 0.282307366830596 -1.531767710926617
h -1.531767710926617 1.531767710926617 0.282307366830596
h -1.531767710926617 0.282307366830596 1.531767710926617
h -0.282307366830596 1.531767710926617 1.531767710926617
h 1.531767710926617 -1.531767710926617 0.282307366830596
h 1.531767710926617 -0.282307366830596 1.531767710926617
h 0.282307366830596 -1.531767710926617 1.531767710926617

E45.wfx

