%nprocs=4
%mem=4GB
#p pbepbe aug-cc-pvtz output=wfx scf=(conver=6) int=(grid=ultrafine)

title

0 2
c 1.226256819235288 0.000000000000000 -0.164372275133604
c 0.000000000000000 0.000000000000000 0.471927312420147
c -1.226256819235288 0.000000000000000 -0.164372275133604
h 1.296454912800292 0.000000000000000 -1.245999261418310
h 2.152278586657243 0.000000000000000 0.394698353641753
h 0.000000000000000 0.000000000000000 1.559419053400168
h -1.296454912800292 0.000000000000000 -1.245999261418310
h -2.152278586657243 0.000000000000000 0.394698353641753

P11.wfx

