%nprocs=4
%mem=4GB
#p pbepbe aug-cc-pvtz output=wfx scf=(conver=6) int=(grid=ultrafine)

title

1 2
c -0.821559161762913 0.191153848929346 0.004068722125226
s 0.950480814195066 0.295790904744860 0.004968703027556
h -1.309578901552148 0.336942745539558 0.957813676478449
h 1.244029447393647 -0.560847546828648 -1.015898453630638
h -1.309753262843992 0.327610070441569 -0.950922082973620
h 1.246381064570340 -0.590650022826686 0.999969434973032

P36.wfx

