%nprocs=4
%mem=4GB
#p pbepbe aug-cc-pvtz output=wfx scf=(conver=6) int=(grid=ultrafine)

title

0 1
N	1.2754606 -0.6478993 -1.9779104
C	1.4130533 -1.5536850 -0.9550667
H	2.4258769 -1.8670780 -0.7468778
C	0.3575976 -2.0239499 -0.2530575
C	0.4821292 -3.0179494 0.8521221
H	0.1757705 -2.5756065 1.7986281
H	-0.1601691 -3.8770412 0.6639498
H	1.5112443 -3.3572767 0.9513659
C	-0.9684711 -1.5298112 -0.5939792
O	-2.0029280 -1.8396957 -0.0199453
N	-0.9956916 -0.6383870 -1.6720420
H	-1.9014057 -0.2501720 -1.8985760
C	0.0684702 -0.1191762 -2.3763759
O	-0.0397875 0.7227006 -3.2531083
H	2.0853289 -0.2760176 -2.4454577

adenine_thymine_stack_2.wfx


