%nprocs=4
%mem=4GB
#p pbepbe aug-cc-pvtz output=wfx scf=(conver=6) int=(grid=ultrafine)

title

0 1
C	0.000000 1.395663 -0.619351
C	-1.208680 0.697831 -0.619351
C	-1.208680 -0.697831 -0.619351
C	-0.000000 -1.395663 -0.619351
C	1.208680 -0.697831 -0.619351
C	1.208680 0.697831 -0.619351
H	0.000000 2.480037 -0.617549
H	-2.147775 1.240018 -0.617549
H	-2.147775 -1.240018 -0.617549
H	-0.000000 -2.480037 -0.617549
H	2.147775 -1.240018 -0.617549
H	2.147775 1.240018 -0.617549
Ne	0.000000 0.000000 2.600194

c6h6_ne.wfx


