%nprocs=4
%mem=4GB
#p pbepbe aug-cc-pvtz output=wfx scf=(conver=6) int=(grid=ultrafine)

title

0 1
C	0.000000 1.395671 -0.617158
C	-1.208686 0.697835 -0.617158
C	-1.208686 -0.697835 -0.617158
C	-0.000000 -1.395671 -0.617158
C	1.208686 -0.697835 -0.617158
C	1.208686 0.697835 -0.617158
H	0.000000 2.479876 -0.616998
H	-2.147636 1.239938 -0.616998
H	-2.147636 -1.239938 -0.616998
H	-0.000000 -2.479876 -0.616998
H	2.147636 -1.239938 -0.616998
H	2.147636 1.239938 -0.616998

c6h6_c6h6_stack_1.wfx


