%nprocs=4
%mem=4GB
#p pbepbe aug-cc-pvtz output=wfx scf=(conver=6) int=(grid=ultrafine)

title

0 1
C	0.000000 -1.615385 0.665900
H	-0.922200 -1.615385 1.231634
H	0.922200 -1.615385 1.231634
C	0.000000 -1.615385 -0.665900
H	-0.922200 -1.615385 -1.231634
H	0.922200 -1.615385 -1.231634

ch4_c2h4_2.wfx


