%nprocs=4
%mem=4GB
#p pbepbe aug-cc-pvtz output=wfx scf=(conver=6) int=(grid=ultrafine)

title

0 1
c 2.793839596855871 -0.434197428761067 -0.626542606385970
c 1.570874689517177 0.161378526089799 0.079207340016823
c 0.247466789039494 -0.331033436578609 -0.508180615668061
c -1.045164113656406 0.284499516984239 0.058033341677234
c -2.066811036669473 -0.812447400310386 -0.258468634239609
o -3.205748950764692 -0.829095398902626 0.588391301785229
c -1.260790097183331 -2.099911303497690 -0.070177648679358
o 3.998248506375742 0.066887533510185 -0.062520649208273
o -1.454874082485446 1.501311425326066 -0.544378612726791
o 1.642992684092345 -0.115616452648571 1.481704234608049
o 0.130540797936967 -1.731391331274740 -0.187589639834495
c -1.075134111432494 2.689429335603105 0.144548335122526
h 2.798996596502756 -0.146431450645703 -1.683055527097544
h 2.756109600027641 -1.532031346013427 -0.569284611104519
h 1.623266685519696 1.251672443893539 -0.010829653195619
h 0.259063788000679 -0.185500447319449 -1.600374533126522
h -0.962133119762914 0.398963508477916 1.147804259887117
h -2.375397013151435 -0.689786409404765 -1.306594555520849
h -3.744958909958108 -0.052677457452277 0.385677317291063
h -1.493330079751584 -2.863593245492261 -0.819245592105878
h -1.440162084002604 -2.513097272306669 0.928434276170495
h 3.912919512827999 -0.015189460240839 0.899309278615449
h 1.356358705457104 -1.036859383412100 1.592597226112591
h -1.431066084481365 2.675609336744265 1.183750256938168
h 0.011524806632151 2.840203324511709 0.144461335214371
h -1.546633075485779 3.518904273120337 -0.386675624545681

C9.wfx

