%nprocs=4
%mem=4GB
#p pbepbe aug-cc-pvtz output=wfx scf=(conver=6) int=(grid=ultrafine)

title

0 1
c -1.793050433850643 -0.253971455465454 0.044067814570477
c -1.093397301485055 0.231945612209081 -1.230374935149892
c 0.390995122882323 -0.157125920341013 -1.235150423856343
c 1.128310613807736 0.342541028659909 0.020328929419274
c 0.418569536612815 -0.142796234125112 1.288091132451398
c -1.066939321845745 0.238374487318163 1.301450185140494
n 2.548188863188787 -0.024814100517706 0.082940438692745
h -1.816389501709911 -1.350551224510189 0.046487705624552
h -2.835125083902264 0.079093180292959 0.054369302387611
h -1.592272585510404 -0.171085732239802 -2.116657194486549
h -1.180685690234178 1.323354958815953 -1.295770400100113
h 0.884817517116579 0.235418919381109 -2.130666529023614
h 0.482891048476135 -1.250350017957626 -1.280056680503303
h 1.092740227279284 1.439455071277686 0.017798643740159
h 0.932914145826497 0.262043486978500 2.162847005944441
h 0.512907409112072 -1.235823971082256 1.345123274243620
h -1.157520969257957 1.329485332971201 1.365174496876838
h -1.547026042039824 -0.163311626289181 2.198492622211090
h 2.649446477049456 -1.035679912353637 0.103131373898534
h 3.040625968484284 0.303798116977393 -0.741626762081408

E23.wfx

