%nprocs=4
%mem=4GB
#p pbepbe aug-cc-pvtz output=wfx scf=(conver=6) int=(grid=ultrafine)

title

0 1
c 0.594646383989950 -0.261969441206928 0.000000000000000
c -0.791843469044989 0.318211909615974 0.000000000000000
o -1.809091798409824 -0.328430200516880 0.000000000000000
h 1.141103383698236 0.096931503513750 -0.878112120702798
h 0.561127033931302 -1.350527902132580 0.000000000000000
h 1.141103383698236 0.096931503513750 0.878112120702798
h -0.837044917862916 1.428852627212929 0.000000000000000

E25.wfx

