%nprocs=4
%mem=4GB
#p pbepbe aug-cc-pvtz output=wfx scf=(conver=6) int=(grid=ultrafine)

title

0 1
c 0.000000000000000 0.000000000000000 -0.951225784401733
c 0.000000000000000 0.000000000000000 0.504510968270122
c 0.000000000000000 0.000000000000000 1.705438953199701
h -0.510194645996576 -0.883683048615683 -1.342125421972191
h -0.510194645996576 0.883683048615683 -1.342125421972191
h 1.020389291993147 0.000000000000000 -1.342125421972191
h 0.000000000000000 0.000000000000000 2.767652128848492

E1.wfx

