%nprocs=4
%mem=4GB
#p pbepbe aug-cc-pvtz output=wfx scf=(conver=6) int=(grid=ultrafine)

title

0 1
c -0.434660989199468 0.752854917361623 0.000000000000000
c -0.434660989199468 -0.752854917361623 0.000000000000000
c 0.869321978398932 0.000000000000000 0.000000000000000
h -0.728670935837944 1.262095082870084 0.909129466827162
h -0.728670935837944 1.262095082870084 -0.909129466827162
h -0.728670935837944 -1.262095082870084 0.909129466827162
h -0.728670935837944 -1.262095082870084 -0.909129466827162
h 1.457341871675893 0.000000000000000 -0.909129466827162
h 1.457341871675893 0.000000000000000 0.909129466827162

P3.wfx

