%nprocs=4
%mem=4GB
#p pbepbe aug-cc-pvtz output=wfx scf=(conver=6) int=(grid=ultrafine)

title

0 1
c 0.962976878445255 0.080200507658313 0.000000000000000
c -0.530556556309227 0.251308981940818 0.000000000000000
o -1.169504047293879 -0.948465491964413 0.000000000000000
o -1.125600671172223 1.298231280024576 0.000000000000000
h -2.122087631417317 -0.763297863461556 0.000000000000000
h 1.272224601250041 -0.487168893904174 -0.879723817908149
h 1.272224601250041 -0.487168893904174 0.879723817908149
h 1.440322825247298 1.056360373610615 0.000000000000000

E26.wfx

