%nprocs=4
%mem=4GB
#p pbepbe aug-cc-pvtz output=wfx scf=(conver=6) int=(grid=ultrafine)

title

0 1
c -1.123253629956924 0.361033181324014 -0.039559213855394
c -0.025482470824101 -0.628688884415324 0.416843150683686
c 1.041416979469550 0.407161182057793 -0.063596873213941
c -0.063458314477142 1.493998035347421 -0.002463459259925
n -0.100107632659858 -1.982592432034760 -0.093648005535731
h -2.014821270132537 0.455232049295716 0.581624776864179
h -1.433726623431791 0.142074401149601 -1.065086461249509
h -0.011954961863131 -0.685476869480928 1.508887402730124
h 1.340887393571436 0.199743526535753 -1.094887938889147
h 1.938541925797062 0.543666254544765 0.543691538689567
h -0.064428378988061 2.017938248802407 0.955092760036944
h -0.088193010379788 2.233441429235169 -0.802983815808000
h -0.047439126570773 -1.995772140806252 -1.106902432835685
h 0.652019120446070 -2.561757981555401 0.262988571642807

P18.wfx

