%nprocs=4
%mem=4GB
#p pbepbe aug-cc-pvtz output=wfx scf=(conver=6) int=(grid=ultrafine)

title

0 1
c 0.887900298271267 0.887900298271267 -0.887900298271267
c 0.000000000000000 0.000000000000000 0.000000000000000
c -0.887900298271267 -0.887900298271267 -0.887900298271267
c 0.887900298271267 -0.887900298271267 0.887900298271267
c -0.887900298271267 0.887900298271267 0.887900298271267
h 1.531732838534553 0.282241242379986 -1.531732838534553
h 0.282241242379986 1.531732838534553 -1.531732838534553
h 1.531732838534553 1.531732838534553 -0.282241242379986
h -0.282241242379986 -1.531732838534553 -1.531732838534553
h -1.531732838534553 -1.531732838534553 -0.282241242379986
h -1.531732838534553 -0.282241242379986 -1.531732838534553
h 1.531732838534553 -1.531732838534553 0.282241242379986
h 1.531732838534553 -0.282241242379986 1.531732838534553
h 0.282241242379986 -1.531732838534553 1.531732838534553
h -1.531732838534553 1.531732838534553 0.282241242379986
h -1.531732838534553 0.282241242379986 1.531732838534553
h -0.282241242379986 1.531732838534553 1.531732838534553

E10.wfx

