%nprocs=4
%mem=4GB
#p pbepbe aug-cc-pvtz output=wfx scf=(conver=6) int=(grid=ultrafine)

title

0 1
o 0.000000000000000 0.000000000000000 1.490890493686131
c -1.168020466862788 0.134863461365136 0.666264007294311
c -0.733407134712530 -0.225161061718645 -0.755818333520735
c 0.733407134712530 0.225161061718645 -0.755818333520735
c 1.168020466862788 -0.134863461365136 0.666264007294311
h -1.948982132801742 -0.520286868702799 1.058628803803493
h -1.528826042662141 1.169573853029294 0.718316401057546
h -1.338386382656790 0.268637584017107 -1.517496063859178
h -0.799385738554432 -1.304610080302716 -0.915340061618503
h 1.338386382656790 -0.268637584017107 -1.517496063859178
h 0.799385738554432 1.304610080302716 -0.915340061618503
h 1.528826042662141 -1.169573853029294 0.718316401057546
h 1.948982132801742 0.520286868702799 1.058628803803493

E29.wfx

