%nprocs=4
%mem=4GB
#p pbepbe aug-cc-pvtz output=wfx scf=(conver=6) int=(grid=ultrafine)

title

0 1
c -1.880272840142801 -0.328907000707537 -0.001237333061611
c -0.562830157953657 0.425810348171512 -0.012104926170063
n 0.561805590184176 -0.344435218639292 -0.032317229983423
c 1.891624219533403 0.241770947468290 0.002696178700619
o -0.515919303348682 1.645644610288104 -0.012029848641097
h -2.470896935259255 -0.012004673062677 -0.861722962898822
h -2.434502173566772 -0.051828723123282 0.896751701224343
h -1.766510147452246 -1.413890198359366 -0.028539833092642
h 0.470461540961603 -1.343741124800287 0.033768584624559
h 1.940372661300178 1.079830191608641 -0.691746221383962
h 2.620570080876645 -0.512238980686657 -0.292790936570571
h 2.146097464867403 0.613989821842552 0.999272827252659

E30.wfx

