%nprocs=4
%mem=4GB
#p pbepbe aug-cc-pvtz output=wfx scf=(conver=6) int=(grid=ultrafine)

title

0 1
c 0.000000000000000 0.643951887197276 0.599882598620628
c 0.000000000000000 0.000000000000000 -0.762407959184087
c 0.000000000000000 -0.643951887197276 0.599882598620628
h 0.000000000000000 1.573930475247198 1.140664197015686
h -0.911878969162877 0.000000000000000 -1.359342816044265
h 0.911878969162877 0.000000000000000 -1.359342816044265
h 0.000000000000000 -1.573930475247198 1.140664197015686

P2.wfx

