%nprocs=4
%mem=4GB
#p pbepbe aug-cc-pvtz output=wfx scf=(conver=6) int=(grid=ultrafine)

title

0 1
c 0.000000000000000 0.667967126446574 -0.927484633668441
c 0.000000000000000 0.786398317432079 0.585316232737580
c 0.000000000000000 -0.786398317432079 0.585316232737580
c 0.000000000000000 -0.667967126446574 -0.927484633668441
h 0.000000000000000 1.413433332955070 -1.713678557614142
h 0.888155674617406 1.244768415040508 1.027923479272507
h -0.888155674617406 1.244768415040508 1.027923479272507
h -0.888155674617406 -1.244768415040508 1.027923479272507
h 0.888155674617406 -1.244768415040508 1.027923479272507
h 0.000000000000000 -1.413433332955070 -1.713678557614142

P7.wfx

